31
Properties=species:S:1:pos:R:3:forces:R:3 pbc="F F F" energy=-1389.9348237483464
C      -4.62930568       0.30040315       1.50289080       0.00023102      -0.00190590       0.00243762 
O      -3.39227855       0.24995705       0.80744144      -0.00108950      -0.00098011      -0.00185220 
C      -3.17736811       0.98995410      -0.30917814       0.00093466      -0.00180916      -0.00259815 
C      -4.09031526       1.90468236      -0.89148530      -0.00032917       0.00395414      -0.00356807 
F      -5.31934379       2.10103414      -0.35501890      -0.00120429       0.00207553       0.00067859 
C      -3.76738593       2.62838591      -2.03642901      -0.00404937       0.00049363       0.00169086 
C      -2.50985818       2.45891143      -2.63900112      -0.00066259      -0.00010873       0.00136503 
C      -1.58874132       1.57694713      -2.09006462      -0.00094162       0.00033409       0.00106351 
C      -1.90139294       0.83879333      -0.92337889      -0.00343105       0.00082381      -0.00008567 
N      -1.02257880      -0.11360946      -0.34723676      -0.00281961      -0.00088116       0.00224766 
N       0.19891170      -0.06274595      -0.77749282       0.00451026       0.00083303      -0.00362684 
C       1.07046901      -1.08597684      -0.30070932      -0.00162308       0.00001203       0.00082056 
C       0.60779600      -2.39912909      -0.02663438       0.00241269       0.00020798       0.00263484 
F      -0.69561698      -2.67903499      -0.14707793      -0.00104500      -0.00165428       0.00172267 
C       1.47169941      -3.43460701       0.33109009       0.00182715       0.00058560       0.00080635 
C       2.84021945      -3.16866773       0.43597393       0.00035334      -0.00120096       0.00079092 
C       3.32527060      -1.89002636       0.16455631       0.00376316      -0.00149401       0.00048814 
C       2.47058738      -0.84144992      -0.21756464      -0.00324976       0.00140762      -0.00055496 
C       3.14243772       0.49493824      -0.46692258       0.00001059      -0.00020836       0.00081683 
O       4.35590078       0.62029371      -0.36118453       0.00148000       0.00062749      -0.00177736 
O       2.36271551       1.55060789      -0.81091545       0.00176040       0.00035585       0.00028572 
H      -4.54791433      -0.39579618       2.34306779       0.00086844      -0.00120011       0.00011284 
H      -5.46132754      -0.01455574       0.85995647      -0.00096044      -0.00050722       0.00072836 
H      -4.82607531       1.30705544       1.89439297      -0.00063249       0.00011575       0.00132902 
H      -4.49780509       3.31435509      -2.45343583       0.00106572      -0.00008315      -0.00249941 
H      -2.26511138       3.01700590      -3.53709865       0.00164016       0.00155293      -0.00254818 
H      -0.62057695       1.43029483      -2.56048011       0.00242285       0.00065292      -0.00015918 
H       1.07399365      -4.42541512       0.52899227      -0.00028389       0.00003605       0.00107791 
H       3.52445381      -3.96050785       0.72676623      -0.00067704      -0.00049941      -0.00316590 
H       4.38736166      -1.67257290       0.24039135       0.00001247      -0.00084697      -0.00008458 
H       1.41674047       1.29887264      -0.88907357      -0.00029401      -0.00068892       0.00142306 
31
Properties=species:S:1:pos:R:3 pbc="F F F"
C      -4.51215837       0.14629140       1.44082695 
O      -3.28163345       0.09266528       0.72452524 
C      -3.07085538       0.91365532      -0.32594036 
C      -3.95713375       1.90396928      -0.79327694 
F      -5.14963490       2.09646953      -0.19565522 
C      -3.62168403       2.69533041      -1.88169838 
C      -2.40872811       2.55779346      -2.56685437 
C      -1.51065348       1.59304079      -2.13405130 
C      -1.85825321       0.81853322      -1.02482033 
N      -1.06231816      -0.23112009      -0.54474110 
N       0.14399035      -0.19442069      -0.98987848 
C       0.97242274      -1.13541856      -0.34931784 
C       0.48452342      -2.40134501      -0.01346092 
F      -0.79170773      -2.76095987      -0.15523013 
C       1.36445218      -3.36710918       0.46893330 
C       2.70767480      -3.01364727       0.59516475 
C       3.20579592      -1.76655314       0.24799289 
C       2.32733368      -0.80654790      -0.25343996 
C       3.03282367       0.47915155      -0.57029768 
O       4.23000645       0.73521347      -0.43657616 
O       2.25241462       1.50918251      -1.08182148 
H      -4.44397710      -0.62128675       2.21935030 
H      -5.38035568      -0.08066049       0.80468760 
H      -4.64100103       1.12532051       1.92471957 
H      -4.33078309       3.43494170      -2.20598263 
H      -2.15142146       3.16885066      -3.42322842 
H      -0.58283579       1.46919997      -2.67940316 
H       0.97035273      -4.34241371       0.72972603 
H       3.39892562      -3.74272701       0.97764517 
H       4.24976231      -1.49050712       0.34083851 
H       1.35021724       1.15350494      -1.15359834 
31
Properties=species:S:1:pos:R:3 pbc="F F F"
C      -4.40531799      -0.00266900       1.38313863 
O      -3.18042113      -0.06035141       0.63761086 
C      -2.97722631       0.84398737      -0.34313624 
C      -3.82708692       1.90510510      -0.69206263 
F      -4.98329677       2.09876101      -0.03325667 
C      -3.48476634       2.76790263      -1.72655295 
C      -2.31073864       2.65744440      -2.48922931 
C      -1.44637356       1.61616689      -2.18563998 
C      -1.81398808       0.80200690      -1.11702984 
N      -1.10743803      -0.35362398      -0.77244629 
N       0.09043414      -0.34602662      -1.21351861 
C       0.87435051      -1.17748480      -0.39302458 
C       0.37060215      -2.41676897      -0.00157456 
F      -0.88045209      -2.84270333      -0.16792268 
C       1.26139268      -3.29800294       0.60592855 
C       2.58407534      -2.86891628       0.75769053 
C       3.09489953      -1.64616816       0.33897359 
C       2.19918176      -0.78008821      -0.27800636 
C       2.93109521       0.49094445      -0.66240689 
O       4.10156002       0.85643869      -0.49590666 
O       2.15124632       1.44177725      -1.36434537 
H      -4.34849037      -0.83658244       2.08858300 
H      -5.30011423      -0.13477169       0.75751865 
H      -4.45737043       0.93610782       1.95437060 
H      -4.16521247       3.55525357      -1.95278597 
H      -2.04504573       3.32109758      -3.30284430 
H      -0.56386248       1.51221155      -2.80204001 
H       0.87478580      -4.25801795       0.92794645 
H       3.27724625      -3.52527314       1.22923385 
H       4.12098263      -1.31745097       0.45080321 
H       1.30091023       0.99809189      -1.44293091 
31
Properties=species:S:1:pos:R:3 pbc="F F F"
C      -4.30551158      -0.14279401       1.32656707 
O      -3.09018445      -0.20124982       0.54474657 
C      -2.89110470       0.78249966      -0.36196226 
C      -3.69716433       1.90445447      -0.59015263 
F      -4.81522734       2.09939560       0.13218040 
C      -3.35097200       2.83694996      -1.56966480 
C      -2.21539016       2.75062036      -2.40334494 
C      -1.39585001       1.64507883      -2.23437596 
C      -1.76611957       0.78644402      -1.19734477 
N      -1.15879381      -0.46584537      -1.03456714 
N       0.04327887      -0.51796538      -1.42900085 
C       0.77691293      -1.21032011      -0.43456622 
C       0.27116480      -2.43665533       0.00947238 
F      -0.95517921      -2.92161228      -0.18348350 
C       1.16273578      -3.22296489       0.73604787 
C       2.46452655      -2.72615025       0.91632737 
C       2.98389418      -1.52325802       0.43116188 
C       2.08184329      -0.74939870      -0.29239573 
C       2.82239706       0.52169239      -0.74243206 
O       3.95686286       0.98346886      -0.54212804 
O       2.06847919       1.33876173      -1.64907821 
H      -4.26288651      -1.03580073       1.95257086 
H      -5.22055301      -0.17764002       0.71912639 
H      -4.27991897       0.74444266       1.97791165 
H      -3.99757371       3.66505645      -1.69632198 
H      -1.94391789       3.46433268      -3.17320552 
H      -0.56232446       1.56340753      -2.91677211 
H       0.78613880      -4.16686508       1.11614808 
H       3.15423189      -3.30511716       1.47176361 
H       3.99239159      -1.14817192       0.56460077 
H       1.27937493       0.80360107      -1.75269107 
31
Properties=species:S:1:pos:R:3 pbc="F F F"
C      -4.20835861      -0.27287670       1.26810110 
O      -3.00957483      -0.32584785       0.44465041 
C      -2.80556890       0.72672191      -0.38471172 
C      -3.56391199       1.89829042      -0.48953108 
F      -4.63955768       2.08992838       0.29871499 
C      -3.21436651       2.89442100      -1.41124047 
C      -2.11947953       2.83082553      -2.30873765 
C      -1.35082275       1.67574191      -2.27308843 
C      -1.71384840       0.76863721      -1.26923852 
N      -1.21087231      -0.55048873      -1.31897747 
N       0.00207955      -0.70345004      -1.61591505 
C       0.68144877      -1.23632110      -0.47776789 
C       0.18612706      -2.45284914       0.01887100 
F      -1.01267818      -2.99518001      -0.19955323 
C       1.06736458      -3.13913800       0.85558666 
C       2.34386568      -2.57728736       1.06384451 
C       2.86368573      -1.39325729       0.51602691 
C       1.96500653      -0.70934979      -0.30506668 
C       2.69565051       0.56105560      -0.81554144 
O       3.78569146       1.11301930      -0.58465908 
O       2.00143950       1.19029046      -1.92598897 
H      -4.18602610      -1.21679887       1.81189051 
H      -5.13969886      -0.21169009       0.68940368 
H      -4.10991000       0.55283152       1.99148950 
H      -3.82282892       3.75559677      -1.43873440 
H      -1.84372202       3.59062130      -3.03349904 
H      -0.56201708       1.61926849      -3.00770587 
H       0.70175940      -4.06513794       1.28995860 
H       3.02342644      -3.07729927       1.69708212 
H       3.85301764      -0.97425782       0.67183432 
H       1.27824083       0.57237740      -2.06236021 
31
Properties=species:S:1:pos:R:3 pbc="F F F"
C      -4.10863671      -0.39480001       1.20521968 
O      -2.93581506      -0.43351159       0.33645515 
C      -2.71604605       0.67369562      -0.41475751 
C      -3.42271703       1.88355944      -0.39102318 
F      -4.44952324       2.06373327       0.46475255 
C      -3.06874747       2.93526035      -1.25118471 
C      -2.01906765       2.89429202      -2.20633391 
C      -1.30399632       1.70450248      -2.30202610 
C      -1.65965161       0.74588272      -1.34103286 
N      -1.25024741      -0.59395678      -1.60706479 
N      -0.04361728      -0.89428543      -1.76217151 
C       0.58895004      -1.26091904      -0.52675176 
C       0.11328574      -2.46222738       0.02683623 
F      -1.05278856      -3.06378190      -0.21285159 
C       0.97258683      -3.04410526       0.96440127 
C       2.21623319      -2.41544827       1.19599072 
C       2.72616165      -1.25360992       0.58642397 
C       1.84089900      -0.66434934      -0.32681664 
C       2.54785317       0.59666377      -0.89461347 
O       3.58199569       1.23888967      -0.63616216 
O       1.94866822       1.00000701      -2.17805996 
H      -4.11443313      -1.38176684       1.66504111 
H      -5.05356091      -0.24049781       0.66753362 
H      -3.94435751       0.35963015       1.99281753 
H      -3.63436971       3.82172446      -1.17958460 
H      -1.73963536       3.69598772      -2.88366419 
H      -0.54788720       1.66920786      -3.07075354 
H       0.61790246      -3.94947886       1.44981951 
H       2.87769497      -2.83521167       1.90141375 
H       3.69161468      -0.78665342       0.76044008 
H       1.27681357       0.32996417      -2.33715560 
31
Properties=species:S:1:pos:R:3 pbc="F F F"
C      -4.00190782      -0.51189919       1.13629529 
O      -2.86587694      -0.52470127       0.22111115 
C      -2.62127241       0.62351041      -0.45379928 
C      -3.26966873       1.85880405      -0.29526820 
F      -4.23989678       2.01640005       0.62848018 
C      -2.90986036       2.95766819      -1.08956777 
C      -1.91270872       2.94082667      -2.09773956 
C      -1.25668112       1.73031498      -2.32397410 
C      -1.60836460       0.71632668      -1.42093938 
N      -1.26183519      -0.59835665      -1.87896606 
N      -0.10854464      -1.07679453      -1.86802672 
C       0.50032570      -1.28927144      -0.58414297 
C       0.05037246      -2.46454870       0.03560806 
F      -1.07701274      -3.12894232      -0.21905813 
C       0.87504647      -2.93607326       1.06406624 
C       2.07629454      -2.23737589       1.31187656 
C       2.56644356      -1.10510642       0.63874312 
C       1.70831174      -0.62319067      -0.36250424 
C       2.38484945       0.61447417      -0.99355502 
O       3.34499311       1.35210657      -0.70753301 
O       1.90814387       0.79511844      -2.38474244 
H      -4.04388215      -1.53428099       1.51005476 
H      -4.95740993      -0.26819604       0.65229993 
H      -3.77897038       0.16159202       1.98027624 
H      -3.42694273       3.86160539      -0.91816561 
H      -1.62949273       3.78070161      -2.72435465 
H      -0.52514426       1.71004234      -3.11741176 
H       0.53097079      -3.81725182       1.59857928 
H       2.71125301      -2.57456218       2.08445262 
H       3.50117049      -0.58344199       0.82305171 
H       1.27285804       0.09289901      -2.55000912 
31
Properties=species:S:1:pos:R:3 pbc="F F F"
C      -3.88617593      -0.62719545       1.06094593 
O      -2.79643422      -0.60044370       0.10246772 
C      -2.52203684       0.57887108      -0.49957931 
C      -3.10394071       1.82448816      -0.20383278 
F      -4.01059642       1.94670654       0.78599246 
C      -2.73765389       2.96297802      -0.92830217 
C      -1.80160566       2.97245955      -1.98540710 
C      -1.21456080       1.75449970      -2.33907757 
C      -1.56368214       0.68155212      -1.51197170 
N      -1.24324359      -0.58341268      -2.11538800 
N      -0.19472351      -1.23376973      -1.94476035 
C       0.41602114      -1.32314212      -0.64851931 
C      -0.00522813      -2.45923328       0.04783716 
F      -1.08814951      -3.18970947      -0.21503330 
C       0.77227974      -2.81524822       1.15576360 
C       1.92180242      -2.04546230       1.41332901 
C       2.38528625      -0.95241020       0.67327028 
C       1.57196830      -0.59019298      -0.41019661 
C       2.21690756       0.60613118      -1.11457226 
O       3.08074057       1.44266295      -0.80360411 
O       1.87281974       0.60360260      -2.54219981 
H      -3.97068199      -1.67669547       1.34713607 
H      -4.84789111      -0.29908233       0.64193473 
H      -3.61141970      -0.04235472       1.95292961 
H      -3.20037463       3.87638233      -0.65718872 
H      -1.51424593       3.84722947      -2.55789538 
H      -0.51043856       1.75042747      -3.15885957 
H       0.43901723      -3.66825927       1.73863344 
H       2.52267329      -2.29735822       2.24789997 
H       3.28317683      -0.37330955       0.86207600 
H       1.27595121      -0.13231429      -2.69869087 
31
Properties=species:S:1:pos:R:3 pbc="F F F"
C      -3.76186474      -0.74317162       0.98013976 
O      -2.72357397      -0.66402599      -0.01428729 
C      -2.41931774       0.54149867      -0.54711097 
C      -2.92742396       1.78233061      -0.11851506 
F      -3.76655426       1.85798981       0.93271326 
C      -2.55546830       2.95559090      -0.77012416 
C      -1.68727420       2.99203863      -1.87240194 
C      -1.17873299       1.77979565      -2.34638765 
C      -1.52402051       0.64649346      -1.61103053 
N      -1.20894424      -0.56964631      -2.30925568 
N      -0.28838217      -1.35833662      -2.00818472 
C       0.33400774      -1.36090462      -0.71495419 
C      -0.05683584      -2.44601833       0.06634229 
F      -1.09058807      -3.24332865      -0.20080313 
C       0.66340133      -2.68431793       1.24049631 
C       1.75449978      -1.84589929       1.50487461 
C       2.18822145      -0.80144393       0.69399525 
C       1.43835930      -0.56268025      -0.46398751 
C       2.05075194       0.57598438      -1.24815413 
O       2.80058813       1.50449264      -0.92140099 
O       1.83250840       0.43660887      -2.66493744 
H      -3.89165821      -1.81059329       1.17900245 
H      -4.72373458      -0.33713915       0.63414930 
H      -3.44131016      -0.25113616       1.91107145 
H      -2.95922048       3.87045563      -0.40147745 
H      -1.39587357       3.89891207      -2.38787048 
H      -0.51052294       1.79726706      -3.19699067 
H       0.34199850      -3.50528806       1.87186866 
H       2.31543687      -2.01035553       2.39562028 
H       3.04543523      -0.16688492       0.88687622 
H       1.28165326      -0.33989053      -2.80413877 
31
Properties=species:S:1:pos:R:3 pbc="F F F"
C      -3.63101991      -0.86227864       0.89634229 
O      -2.64342067      -0.72170695      -0.12501060 
C      -2.31373687       0.51034345      -0.59068114 
C      -2.74311964       1.73439676      -0.04002070 
F      -3.51449474       1.75822492       1.06674540 
C      -2.36769267       2.94240550      -0.61583143 
C      -1.57033375       3.00319623      -1.76161421 
C      -1.14479014       1.80970182      -2.34616416 
C      -1.48322560       0.61433515      -1.71312318 
N      -1.17442892      -0.56874159      -2.47042018 
N      -0.37730268      -1.45698879      -2.07273938 
C       0.24940267      -1.39973052      -0.77961561 
C      -0.10843858      -2.42632055       0.09450533 
F      -1.09007904      -3.28833200      -0.17920519 
C       0.54840327      -2.54750637       1.32005091 
C       1.57852901      -1.64487247       1.59401249 
C       1.98246326      -0.65572228       0.70804396 
C       1.31024695      -0.53445960      -0.51527885 
C       1.88770997       0.53752883      -1.38990954 
O       2.51605432       1.53924577      -1.05198479 
O       1.77667669       0.29122480      -2.76719144 
H      -3.80385847      -1.93795836       1.00944057 
H      -4.58501475      -0.38566634       0.62654150 
H      -3.26878270      -0.46370455       1.85588113 
H      -2.70972965       3.85100110      -0.15422918 
H      -1.27616223       3.94055733      -2.21729732 
H      -0.52031766       1.84938507      -3.23027592 
H       0.24085579      -3.33289328       2.00097758 
H       2.09564320      -1.72069800       2.53368326 
H       2.79686222       0.03095921       0.90842211 
H       1.27866230      -0.52652842      -2.89891658 
31
Properties=species:S:1:pos:R:3:forces:R:3 pbc="F F F" energy=-1389.671747796223
C      -3.49715402      -0.98664943       0.81366116      -0.00013353       0.00349364      -0.00031517 
O      -2.55331722      -0.78133531      -0.22777921       0.00261739       0.00194358      -0.00427153 
C      -2.20536181       0.48172047      -0.62566131      -0.00331537      -0.00067995       0.00093362 
C      -2.55512556       1.68324165       0.03284205      -0.00110481      -0.00172240      -0.00179883 
F      -3.26082162       1.65835599       1.19023684      -0.00131748      -0.00085919      -0.00111541 
C      -2.17883199       2.93204322      -0.46305728       0.00106768      -0.00367336      -0.00085863 
C      -1.45106256       3.01083274      -1.65559139      -0.00223731       0.00122980      -0.00095197 
C      -1.10697159       1.84642085      -2.34054563      -0.00094941      -0.00007446       0.00235147 
C      -1.43603965       0.58463443      -1.81395976       0.00038661      -0.00044546       0.00144258 
N      -1.14573415      -0.58790743      -2.61687050       0.00065981      -0.00107878       0.00197627 
N      -0.45979524      -1.54061158      -2.15072499      -0.00267447       0.00115135      -0.00254274 
C       0.15857182      -1.43655398      -0.84151004      -0.00158910      -0.00066151       0.00169024 
C      -0.16457231      -2.40298525       0.13419178       0.00017555       0.00014585       0.00051658 
F      -1.09272960      -3.32589563      -0.15470440       0.00091040       0.00093180       0.00067781 
C       0.42777290      -2.40977861       1.39727102       0.00185989       0.00014686      -0.00220075 
C       1.39906906      -1.44632918       1.69035026       0.00137575      -0.00237087      -0.00009323 
C       1.77518035      -0.51519918       0.72435170       0.00108081      -0.00015914       0.00185265 
C       1.18330820      -0.50205203      -0.55415989       0.00004903       0.00217746      -0.00073581 
C       1.72863185       0.50580230      -1.54284147       0.00103297       0.00392634       0.00184202 
O       2.23597675       1.55669100      -1.18393913       0.00081779      -0.00250704       0.00277303 
O       1.69786961       0.15802541      -2.86057091      -0.00108514       0.00000420       0.00042984 
H      -3.70503255      -2.06063244       0.84259800      -0.00178580      -0.00056014      -0.00019809 
H      -4.43283990      -0.44697965       0.61691114       0.00035064       0.00089474      -0.00157271 
H      -3.09443142      -0.67914678       1.78878441       0.00182326       0.00051866      -0.00074387 
H      -2.45830302       3.82652658       0.08384676      -0.00184457       0.00019371      -0.00159502 
H      -1.15661470       3.97846012      -2.04800850      -0.00026724      -0.00119346      -0.00078784 
H      -0.53182909       1.90214498      -3.25938008       0.00207188      -0.00140663      -0.00139058 
H       0.13676388      -3.15638920       2.12957867       0.00235257      -0.00173418       0.00267800 
H       1.87010638      -1.43407417       2.66860589       0.00215148       0.00052982       0.00278609 
H       2.54556214       0.22062587       0.93647000      -0.00004565       0.00112102       0.00026645 
H       1.26331608      -0.69460856      -3.01525810      -0.00243364       0.00071774      -0.00104447 
