32
Properties=species:S:1:pos:R:3:forces:R:3 energy=-1554.4141495296344 pbc="F F F"
N       0.23151802       3.85742062      -1.82405776       0.00069917      -0.00416374       0.00374963 
C       0.86736739       3.41910332      -0.96678605      -0.00108020       0.00097033      -0.00308152 
C       1.68111869       2.89036545       0.10054870       0.00093493       0.00151556       0.00002576 
C       2.59706037       3.71991662       0.76295868       0.00303050       0.00196822      -0.00052341 
C       3.38600880       3.20755354       1.79008098      -0.00036645       0.00058526       0.00008406 
C       3.28357817       1.86006498       2.17926127      -0.00041936      -0.00044268      -0.00116099 
C       4.16287812       1.34060916       3.27129085       0.00072966       0.00188703       0.00014863 
O       4.15969465       0.19637909       3.70391435      -0.00130517      -0.00044962      -0.00153720 
O       5.02375968       2.26571522       3.79561076       0.00151867       0.00118164      -0.00017887 
C       2.34774233       1.01465703       1.53511451       0.00120551       0.00195256       0.00036700 
C       2.24925612      -0.38479406       1.87706459       0.00000513       0.00416303      -0.00180494 
N       2.16785292      -1.51739033       2.09041470      -0.00249969      -0.00424369       0.00166449 
C       1.52649624       1.53945218       0.50044035       0.00120939       0.00083103       0.00036388 
N       0.64480223       0.72008481      -0.25539441      -0.00120210      -0.00078861      -0.00007164 
N      -0.00155197      -0.17069754       0.41261661       0.00035106      -0.00042778      -0.00148184 
C      -0.76757586      -1.07606707      -0.38117572       0.00153535       0.00157956       0.00266168 
C      -0.55764441      -1.27305139      -1.76030215      -0.00051507      -0.00049358       0.00094391 
C      -1.30564241      -2.22690746      -2.46434250      -0.00245506      -0.00280689       0.00088532 
C      -1.09954802      -2.45851978      -3.91977562      -0.00079333      -0.00018773      -0.00341396 
O      -1.72950468      -3.27271373      -4.59017532      -0.00127847      -0.00124767       0.00006739 
O      -0.13661284      -1.69170247      -4.50605845       0.00221293       0.00194006       0.00230382 
C      -2.27709629      -2.99516948      -1.78814771      -0.00021016       0.00171968      -0.00123312 
C      -2.50104301      -2.82189172      -0.42491608      -0.00046028      -0.00130713      -0.00112036 
C      -1.73934464      -1.87315284       0.26749795      -0.00053587      -0.00169173      -0.00012985 
F      -1.95461833      -1.69639823       1.56979717       0.00089727      -0.00099836       0.00057012 
H       2.69515382       4.76004617       0.46620080       0.00084505      -0.00042266       0.00077757 
H       4.10123881       3.84856315       2.29672954      -0.00114757      -0.00074855      -0.00065850 
H       5.55149762       1.84403486       4.49300234      -0.00116221      -0.00107178       0.00185148 
H       0.19821277      -0.68493701      -2.27444650      -0.00045993       0.00024347      -0.00133856 
H      -0.08436216      -1.91743325      -5.44864829       0.00074278       0.00149745       0.00063371 
H      -2.84421417      -3.72871138      -2.35487844      -0.00036971      -0.00030947       0.00015177 
H      -3.24404769      -3.41260803       0.10193248       0.00034323      -0.00023323       0.00048457 
32
Properties=species:S:1:pos:R:3 pbc="F F F"
N       0.33031340       3.62968464      -1.95619091 
C       0.93000921       3.22403813      -1.06329497 
C       1.68590471       2.74211897       0.03366894 
C       2.49997465       3.62777272       0.73325522 
C       3.23287679       3.15448346       1.78987414 
C       3.22128208       1.83598267       2.21010104 
C       4.02961979       1.35305199       3.32465329 
O       4.10086788       0.22396180       3.78808773 
O       4.79119103       2.34999757       3.88616789 
C       2.39363121       0.93553209       1.53024819 
C       2.38590632      -0.43424237       1.89789924 
N       2.37546521      -1.56378595       2.12845680 
C       1.63329156       1.42700318       0.47651597 
N       0.89375192       0.58310317      -0.34672817 
N       0.23190960      -0.30403666       0.29355938 
C      -0.61578815      -1.10338941      -0.46402101 
C      -0.48192686      -1.25745149      -1.82237963 
C      -1.32984006      -2.14678820      -2.45995988 
C      -1.21729274      -2.33380469      -3.88953576 
O      -1.95108757      -3.10552479      -4.51850675 
O      -0.26285183      -1.62257690      -4.53582503 
C      -2.26143784      -2.84126962      -1.71695498 
C      -2.39752711      -2.70482472      -0.36165141 
C      -1.53958537      -1.81870042       0.26721275 
F      -1.66647140      -1.67409993       1.57418147 
H       2.53460213       4.66408772       0.41309173 
H       3.87896281       3.85226343       2.33346238 
H       5.29033060       1.93733137       4.61265554 
H       0.26100183      -0.71081673      -2.39701137 
H      -0.30143668      -1.84230874      -5.48296392 
H      -2.91838738      -3.54033098      -2.24700096 
H      -3.12482948      -3.25464089       0.22430463 
32
Properties=species:S:1:pos:R:3 pbc="F F F"
N       0.43013496       3.40527794      -2.08515191 
C       0.99220673       3.03227195      -1.15975677 
C       1.69409536       2.59781213      -0.03247943 
C       2.40181814       3.54097965       0.70469207 
C       3.08579901       3.10702068       1.79375366 
C       3.15726423       1.81499875       2.24125305 
C       3.90374535       1.36434271       3.37975286 
O       4.04521829       0.25311402       3.87050783 
O       4.55572627       2.43367909       3.97848384 
C       2.44262902       0.85560122       1.52602814 
C       2.51987519      -0.48621074       1.91724715 
N       2.58070005      -1.60751135       2.16500423 
C       1.73576513       1.31988823       0.45642636 
N       1.15580355       0.44377134      -0.43993017 
N       0.47792195      -0.44640756       0.16962698 
C      -0.47193089      -1.12975350      -0.54666007 
C      -0.40277128      -1.24339925      -1.88952492 
C      -1.35654854      -2.06643090      -2.45422973 
C      -1.33550627      -2.21494614      -3.86730281 
O      -2.17475682      -2.93400898      -4.44335311 
O      -0.38584533      -1.55992212      -4.57222363 
C      -2.25415264      -2.69521606      -1.65056311 
C      -2.30004790      -2.58960950      -0.29661209 
C      -1.34304676      -1.76886322       0.26880346 
F      -1.37747521      -1.65364183       1.57755756 
H       2.37392488       4.56913028       0.36286407 
H       3.65036704       3.85645736       2.36993506 
H       5.02956341       2.03314645       4.73123579 
H       0.32475389      -0.73883231      -2.51677794 
H      -0.51770522      -1.76808414      -5.51351076 
H      -2.99697731      -3.34678620      -2.13510576 
H      -3.00811801      -3.09604758       0.34538172 
32
Properties=species:S:1:pos:R:3 pbc="F F F"
N       0.53131760       3.18511355      -2.20834588 
C       1.05557468       2.84464434      -1.25321172 
C       1.70671964       2.45847250      -0.09465326 
C       2.30133710       3.45519018       0.67634733 
C       2.94193027       3.06269993       1.79965217 
C       3.09008249       1.79470865       2.27058891 
C       3.78529694       1.37745048       3.43584966 
O       3.99256966       0.28635161       3.94959851 
O       4.31518842       2.51111473       4.06792261 
C       2.49587531       0.77907271       1.52411185 
C       2.65228545      -0.53673358       1.93581604 
N       2.78275525      -1.64533484       2.20023261 
C       1.83056287       1.21612203       0.43782019 
N       1.42997960       0.30416302      -0.52070629 
N       0.73273772      -0.60109884       0.02432536 
C      -0.33495789      -1.15201778      -0.62658299 
C      -0.32636815      -1.23529665      -1.96067637 
C      -1.38259363      -1.98394506      -2.44561285 
C      -1.45422063      -2.10061322      -3.84780672 
O      -2.39290577      -2.75460637      -4.36040588 
O      -0.50854971      -1.50518992      -4.61083852 
C      -2.25184595      -2.55247725      -1.58484467 
C      -2.20395496      -2.47266847      -0.23150129 
C      -1.15204935      -1.72510705       0.26780462 
F      -1.09047851      -1.63693439       1.57312609 
H       2.21294801       4.47191167       0.31510306 
H       3.41528791       3.85663610       2.40276357 
H       4.76782552       2.12814580       4.84475113 
H       0.38533772      -0.77303997      -2.63349977 
H      -0.73120374      -1.69503253      -5.53758668 
H      -3.07337649      -3.14527925      -2.01691547 
H      -2.89067713      -2.93460170       0.46274627 
32
Properties=species:S:1:pos:R:3 pbc="F F F"
N       0.63445654       2.96852861      -2.32409847 
C       1.12142306       2.66091553      -1.34125069 
C       1.72367353       2.32261799      -0.15092453 
C       2.19846070       3.36567745       0.64736730 
C       2.79860185       3.01767572       1.80481110 
C       3.01955388       1.77275204       2.29663400 
C       3.67188495       1.39428504       3.49127265 
O       3.94176701       0.32586462       4.02448839 
O       4.06887483       2.57777725       4.15042540 
C       2.55242354       0.70909791       1.52468802 
C       2.78414899      -0.58186728       1.95470280 
N       2.98162093      -1.67438929       2.23463733 
C       1.91796072       1.11229278       0.41779650 
N       1.70847127       0.16639525      -0.57468670 
N       0.98598320      -0.76470705      -0.15391055 
C      -0.20025921      -1.16907881      -0.70227088 
C      -0.25763579      -1.23477013      -2.03200410 
C      -1.40545578      -1.89865042      -2.43334606 
C      -1.57186996      -1.98833357      -3.82478610 
O      -2.59855916      -2.56543537      -4.26700982 
O      -0.63396926      -1.45820982      -4.64697880 
C      -2.24827625      -2.40833639      -1.51690169 
C      -2.10436811      -2.35157722      -0.16850293 
C      -0.96581470      -1.68597092       0.25965799 
F      -0.80806326      -1.62489216       1.55520512 
H       2.05155271       4.36838088       0.26877722 
H       3.17404723       3.84815335       2.42878691 
H       4.50368580       2.21895126       4.94999140 
H       0.43741497      -0.81645698      -2.74743700 
H      -0.94105611      -1.62286327      -5.55295822 
H      -3.14015740      -2.93384548      -1.89100225 
H      -2.76809045      -2.76816109       0.57419829 
32
Properties=species:S:1:pos:R:3 pbc="F F F"
N       0.74024932       2.75339800      -2.43203271 
C       1.19044690       2.47992883      -1.42268504 
C       1.74482414       2.18791874      -0.20053964 
C       2.09387703       3.26823888       0.61689435 
C       2.65413820       2.96808720       1.80684363 
C       2.94619258       1.74718853       2.31845252 
C       3.56023836       1.41580016       3.54471468 
O       3.89087184       0.37326545       4.09509128 
O       3.81714784       2.63069607       4.22337001 
C       2.61081520       0.64745049       1.52725888 
C       2.91634482      -0.61881036       1.97521410 
N       3.17808102      -1.69289773       2.26882279 
C       2.00201708       1.00459714       0.39330334 
N       1.97629502       0.02882465      -0.59367714 
N       1.22430524      -0.92367241      -0.36516832 
C      -0.05984777      -1.18309305      -0.77434945 
C      -0.19913496      -1.24122585      -2.09935400 
C      -1.42302440      -1.81029162      -2.41701622 
C      -1.68651253      -1.87580889      -3.79371384 
O      -2.78658802      -2.36608923      -4.16236417 
O      -0.76493745      -1.41736929      -4.67683299 
C      -2.23691234      -2.25958585      -1.44568695 
C      -1.99684404      -2.22506544      -0.10958238 
C      -0.78242739      -1.64949865       0.24036334 
F      -0.53196138      -1.61724555       1.52053211 
H       1.88980189       4.25456211       0.22265385 
H       2.92730601       3.82699955       2.44561074 
H       4.23585502       2.30322664       5.04516261 
H       0.47579992      -0.86997869      -2.85856162 
H      -1.14770396      -1.55085972      -5.55824834 
H      -3.19046970      -2.71164404      -1.75709850 
H      -2.63581323      -2.59522566       0.67799468 
32
Properties=species:S:1:pos:R:3 pbc="F F F"
N       0.84920529       2.53671446      -2.53304356 
C       1.26249279       2.29996796      -1.49780093 
C       1.76984846       2.05316454      -0.24327935 
C       1.98866772       3.16009774       0.58425252 
C       2.50797001       2.91149531       1.80464509 
C       2.87087419       1.71670667       2.33562822 
C       3.44719778       1.44235920       3.59609502 
O       3.83755431       0.42939321       4.16190953 
O       3.56121165       2.66868105       4.28600903 
C       2.66984451       0.59445395       1.53159128 
C       3.04945146      -0.64661954       1.99844340 
N       3.37344667      -1.70058117       2.30326694 
C       2.08874634       0.89035500       0.36231222 
N       2.21699224      -0.11320922      -0.58424787 
N       1.43990242      -1.05994034      -0.59319140 
C       0.09291661      -1.19921968      -0.84642305 
C      -0.15071468      -1.25258992      -2.16022917 
C      -1.43362259      -1.71887332      -2.39696825 
C      -1.79722131      -1.76146390      -3.75295617 
O      -2.95449210      -2.15751251      -4.04755215 
O      -0.90385952      -1.38004808      -4.69811778 
C      -2.21365820      -2.10526486      -1.37167444 
C      -1.87836923      -2.09304120      -0.05620882 
C      -0.60162697      -1.61450861       0.20817320 
F      -0.26268932      -1.61248756       1.46897610 
H       1.72797748       4.12755243       0.17575320 
H       2.67613331       3.79055926       2.45204246 
H       3.96335914       2.38030930       5.13007263 
H       0.49758787      -0.93194858      -2.96582993 
H      -1.35262374      -1.47812400      -5.55308005 
H      -3.21957747      -2.47925223      -1.61628451 
H      -2.49049485      -2.41530495       0.77308821 
32
Properties=species:S:1:pos:R:3 pbc="F F F"
N       0.96128381       2.31549856      -2.62884148 
C       1.33653867       2.11902312      -1.56822292 
C       1.79728632       1.91874985      -0.27948230 
C       1.88393320       3.04060670       0.54911214 
C       2.36023538       2.84789775       1.79881858 
C       2.79464548       1.68081387       2.34829551 
C       3.33027969       1.47396606       3.64668248 
O       3.77963362       0.49407047       4.22566581 
O       3.30315217       2.69245942       4.33949581 
C       2.72834443       0.54882067       1.53795433 
C       3.18339427      -0.66657772       2.02441389 
N       3.56889643      -1.69867232       2.33797124 
C       2.18256020       0.76929693       0.32556648 
N       2.42473116      -0.25989897      -0.56684659 
N       1.63482108      -1.16588537      -0.81157817 
C       0.25728173      -1.22176805      -0.92352216 
C      -0.11042493      -1.26607584      -2.21478025 
C      -1.43663087      -1.62484920      -2.37460538 
C      -1.90496900      -1.64457617      -3.70384297 
O      -3.10266824      -1.94203818      -3.92541845 
O      -1.05225357      -1.34323737      -4.71036046 
C      -2.17876108      -1.94644950      -1.29599202 
C      -1.74829339      -1.95647761      -0.00896333 
C      -0.42513197      -1.58007952       0.16559252 
F       0.00077274      -1.60802893       1.40337542 
H       1.56662130       3.98641104       0.12769476 
H       2.42224842       3.73820328       2.44828655 
H       3.68586741       2.45128132       5.20591225 
H       0.50376734      -0.99877229      -3.06730038 
H      -1.55753133      -1.40393657      -5.53809262 
H      -3.22604062      -2.23884614      -1.47092636 
H      -2.33115957      -2.22910886       0.85930967 
32
Properties=species:S:1:pos:R:3 pbc="F F F"
N       1.07559820       2.08782254      -2.72128124 
C       1.41102752       1.93515365      -1.63644153 
C       1.82450541       1.78554067      -0.31063790 
C       1.78048737       2.91145650       0.51146044 
C       2.21116186       2.77981041       1.79139139 
C       2.71854876       1.64006100       2.35706576 
C       3.20805524       1.51023932       3.69860062 
O       3.71571634       0.56589299       4.28699274 
O       3.04590031       2.70476523       4.38660849 
C       2.78506315       0.50817227       1.54696288 
C       3.31772294      -0.68198216       2.05194073 
N       3.76490286      -1.68969095       2.37233833 
C       2.28372883       0.64362598       0.28620000 
N       2.60833540      -0.40622724      -0.56054045 
N       1.81799187      -1.24958150      -1.00226857 
C       0.42637682      -1.25039116      -1.00826826 
C      -0.07617060      -1.27868376      -2.26541946 
C      -1.43287136      -1.52915289      -2.35181635 
C      -2.01275442      -1.52513974      -3.64996094 
O      -3.23426280      -1.72332650      -3.80014016 
O      -1.21030397      -1.30421856      -4.71495500 
C      -2.13680588      -1.78521643      -1.21944872 
C      -1.60846157      -1.81711741       0.03291004 
C      -0.25436182      -1.54492506       0.11907202 
F       0.26079362      -1.60090858       1.32860028 
H       1.40656180       3.83265768       0.07886640 
H       2.16820204       3.67153388       2.43584600 
H       3.40403584       2.51857164       5.27482728 
H       0.49894752      -1.06621129      -3.16133362 
H      -1.76344244      -1.32810636      -5.51489111 
H      -3.21202316      -1.99407146      -1.32429862 
H      -2.15977541      -2.03853228       0.93739015 
32
Properties=species:S:1:pos:R:3 pbc="F F F"
N       1.19050060       1.85337743      -2.81189214 
C       1.48442585       1.74692147      -1.70520491 
C       1.84878713       1.65353252      -0.33944822 
C       1.67858066       2.77635600       0.47162779 
C       2.06048106       2.71131349       1.78505139 
C       2.64335185       1.59611115       2.36298575 
C       3.08027514       1.55009929       3.75381199 
O       3.64567742       0.64230375       4.34638687 
O       2.79240760       2.71032584       4.43130114 
C       2.83893540       0.46957176       1.55867893 
C       3.45236702      -0.69717453       2.07945879 
N       3.96129078      -1.67693991       2.40553506 
C       2.38924227       0.51652890       0.24729477 
N       2.78227739      -0.54951316      -0.57332468 
N       2.00133182      -1.32463294      -1.16420246 
C       0.59354764      -1.28134039      -1.09894774 
C      -0.04536907      -1.28770886      -2.31529263 
C      -1.42456028      -1.43300649      -2.32998021 
C      -2.12472984      -1.40338516      -3.59569282 
O      -3.35497091      -1.50562920      -3.67622867 
O      -1.37681341      -1.26106423      -4.71489584 
C      -2.09500307      -1.62329018      -1.14221701 
C      -1.46277938      -1.67704009       0.07176266 
C      -0.08809714      -1.50736646       0.07580616 
F       0.52050494      -1.58875878       1.25037007 
H       1.24863044       3.67004252       0.03029576 
H       1.91697480       3.59411412       2.41721812 
H       3.11929555       2.58523076       5.33953150 
H       0.48973565      -1.13067710      -3.24777524 
H      -1.97026262      -1.25103164      -5.48582566 
H      -3.18277724      -1.74927802      -1.17980813 
H      -1.98082778      -1.84617142       1.00899123 
32
Properties=species:S:1:pos:R:3:forces:R:3 energy=-1554.2855061103382 pbc="F F F"
N       1.30407478       1.61345151      -2.90165116       0.00112296       0.00003345       0.00352409 
C       1.55570566       1.55374433      -1.77684872      -0.00089583       0.00059458       0.00045780 
C       1.86864306       1.52109890      -0.36928129       0.00058059       0.00318177      -0.00016274 
C       1.57761592       2.64041546       0.43056670      -0.00004689      -0.00023007       0.00002352 
C       1.90728149       2.64652611       1.78218724       0.00061554       0.00165855      -0.00454304 
C       2.56923415       1.55161057       2.36776257       0.00169367      -0.00088172       0.00115980 
C       2.94798973       1.59125916       3.81271383      -0.00292176      -0.00020146      -0.00236059 
O       3.57076788       0.72006860       4.40432144       0.00059788       0.00151699       0.00295982 
O       2.54425581       2.71552438       4.47802269       0.00336193       0.00186880      -0.00135512 
C       2.88972916       0.42940658       1.57140776       0.00180805      -0.00146033       0.00133417 
C       3.58793762      -0.71612413       2.10577022       0.00008137       0.00204519       0.00045968 
N       4.15754250      -1.66371700       2.43695484      -0.00194500      -0.00207590      -0.00002079 
C       2.49527918       0.39083190       0.21061337      -0.00088767      -0.00363227      -0.00042107 
N       2.95921423      -0.69079588      -0.60395377      -0.00360263       0.00328856       0.00076261 
N       2.19455221      -1.40244603      -1.30764899       0.00208711       0.00097586      -0.00062227 
C       0.75523378      -1.31095249      -1.19106895       0.00271712      -0.00228698       0.00003426 
C      -0.01321048      -1.29171163      -2.36711173      -0.00177546      -0.00166371       0.00055585 
C      -1.41549464      -1.33757046      -2.30940534       0.00148140       0.00101131      -0.00061998 
C      -2.24396444      -1.27946263      -3.54437859       0.00268127      -0.00120262       0.00092467 
O      -3.47269097      -1.29256490      -3.55720234      -0.00301493       0.00276608       0.00156119 
O      -1.54952256      -1.21294298      -4.71408969      -0.00224666       0.00392523      -0.00479459 
C      -2.06060808      -1.46118454      -1.06422738      -0.00086815      -0.00139462      -0.00027538 
C      -1.31676493      -1.53804394       0.11135687       0.00224675      -0.00222797       0.00271901 
C       0.07850592      -1.46592204       0.04002220      -0.00417243      -0.00133132      -0.00059657 
F       0.78302518      -1.57046429       1.17411605      -0.00097577      -0.00282112       0.00059714 
H       1.09325138       3.50361035      -0.01678878      -0.00000968      -0.00203629       0.00196983 
H       1.67118240       3.51080543       2.39548203       0.00017457      -0.00094100       0.00073126 
H       2.83333907       2.65400456       5.40291281       0.00034463       0.00286708       0.00007083 
H       0.48285656      -1.19010876      -3.32815697      -0.00186942      -0.00145292      -0.00343166 
H      -2.17688910      -1.17352763      -5.45357902       0.00227207      -0.00075247       0.00099609 
H      -3.14563620      -1.50843957      -1.04007639       0.00239610       0.00101302       0.00105873 
H      -1.80000600      -1.65455851       1.07663009      -0.00103072      -0.00015371      -0.00269655 
