47
Properties=species:S:1:pos:R:3:forces:R:3 energy=-1604.9991481310867 pbc="F F F"
C      -0.17430746       2.17702483      -2.32208760       0.00168582      -0.00008096      -0.00045188 
C      -1.24991057       2.46390698      -1.31202487       0.00016811       0.00171129       0.00044166 
C      -1.84717845       3.73098300      -1.31284137      -0.00005946      -0.00050267      -0.00041865 
C      -2.85590613       4.06082626      -0.41173066       0.00093740      -0.00209689       0.00146535 
C      -3.34842055       3.11759918       0.50732021      -0.00155767       0.00315633      -0.00054022 
C      -4.47453571       3.51979634       1.40132449      -0.00092627      -0.00137676      -0.00145126 
C      -4.44279625       4.76554790       2.05263219       0.00203762      -0.00026523      -0.00199017 
C      -5.50131686       5.17417042       2.86352840       0.00119372       0.00067724       0.00102301 
C      -6.61792576       4.35257540       3.02739661      -0.00162413       0.00017641       0.00232390 
C      -6.66789627       3.11912470       2.37491317      -0.00114579      -0.00353571      -0.00099592 
C      -5.60728900       2.70432869       1.57042404      -0.00156665      -0.00346513      -0.00096009 
C      -2.78746506       1.82071207       0.51274273      -0.00161133      -0.00216722       0.00225972 
C      -3.23857268       0.79061958       1.50430318      -0.00124448       0.00210819      -0.00088523 
C      -3.71273095      -0.46315794       1.07996885      -0.00122202      -0.00041279      -0.00217862 
C      -4.12764936      -1.41699538       2.00921228       0.00009373       0.00135657       0.00084746 
C      -4.06736826      -1.14028274       3.37673491       0.00034217      -0.00062147       0.00166053 
C      -3.59426337       0.09961992       3.80951915      -0.00147818      -0.00186038       0.00076803 
C      -3.18648846       1.05899243       2.88249716       0.00082672       0.00165171      -0.00055238 
C      -1.71593118       1.50556167      -0.36984115       0.00036446      -0.00119619      -0.00044838 
N      -1.22003014       0.17155937      -0.28515531       0.00285438      -0.00093632      -0.00217098 
N       0.00148419      -0.01191386      -0.66114489      -0.00471626       0.00279988       0.00124545 
C       0.44181132      -1.37203190      -0.56853514      -0.00141030      -0.00093050      -0.00194258 
C      -0.26305435      -2.38563774       0.11368949      -0.00269177      -0.00210027       0.00051581 
C       0.25108331      -3.67884908       0.18265020       0.00184736       0.00379392      -0.00072867 
C       1.47445493      -3.99197975      -0.42216466       0.00218764      -0.00039086       0.00105913 
C       2.19986956      -3.00727002      -1.09804232      -0.00326672      -0.00044903       0.00041539 
C       1.67913055      -1.71237890      -1.15549852       0.00270193      -0.00154831      -0.00246489 
F       2.37060999      -0.76547071      -1.80905207      -0.00003599       0.00295337      -0.00175998 
H      -0.26710231       1.17467053      -2.73887750      -0.00084393      -0.00191101      -0.00013394 
H      -0.21911074       2.89755251      -3.13828506       0.00057831      -0.00082578       0.00061488 
H       0.82076524       2.24784775      -1.87939072       0.00090855      -0.00029447       0.00128204 
H      -1.51222906       4.47408801      -2.03333225       0.00436490      -0.00037805       0.00334456 
H      -3.29556456       5.05503382      -0.44153350       0.00192974      -0.00239380      -0.00011833 
H      -3.57478860       5.41104345       1.93537878       0.00007475       0.00040994      -0.00083691 
H      -5.45493017       6.13689248       3.36748656      -0.00130977       0.00095275      -0.00079487 
H      -7.44508443       4.67284850       3.65626702       0.00186193      -0.00107432       0.00090505 
H      -7.53866464       2.47787281       2.49113312      -0.00083427       0.00110979       0.00045976 
H      -5.66568448       1.74805205       1.05651474      -0.00075838       0.00277442       0.00094958 
H      -3.77292225      -0.68565348       0.01702362      -0.00104461       0.00142160       0.00158650 
H      -4.50088625      -2.37910708       1.66518816       0.00209677       0.00017410      -0.00050842 
H      -4.38887246      -1.88616291       4.09960393       0.00148747       0.00094279      -0.00025709 
H      -3.54421135       0.32108853       4.87315627       0.00091627       0.00066941      -0.00031979 
H      -2.81668662       2.02131691       3.22866559      -0.00066864       0.00003797      -0.00024893 
H      -1.20791186      -2.13945628       0.59181165      -0.00145453       0.00041138      -0.00356349 
H      -0.29921356      -4.45132499       0.71281561      -0.00076993      -0.00083085       0.00244994 
H       1.86546609      -5.00407460      -0.36279349       0.00044725       0.00400222       0.00176364 
H       3.15211824      -3.23365515      -1.56764440       0.00033405      -0.00164628      -0.00065970 
47
Properties=species:S:1:pos:R:3 pbc="F F F"
C      -0.22328268       2.06506605      -2.38153632 
C      -1.26699011       2.36739789      -1.35245196 
C      -1.80124525       3.65349896      -1.31314678 
C      -2.77929631       3.99182600      -0.39379772 
C      -3.31108114       3.06263525       0.50616536 
C      -4.40329639       3.48029342       1.41749838 
C      -4.31543863       4.69681376       2.10140384 
C      -5.34226975       5.12079669       2.93059443 
C      -6.48950126       4.35530548       3.09215260 
C      -6.59485016       3.15089768       2.40785659 
C      -5.56658770       2.72102849       1.58462813 
C      -2.81302804       1.74916089       0.47536589 
C      -3.30035978       0.72924100       1.44823980 
C      -3.82806456      -0.48957998       1.00034346 
C      -4.27337313      -1.43746367       1.91453909 
C      -4.19983029      -1.20160144       3.28393746 
C      -3.67640277       0.00481767       3.73923219 
C      -3.23580911       0.95702778       2.82838477 
C      -1.77532637       1.43147371      -0.42731156 
N      -1.36711102       0.09531087      -0.40165755 
N      -0.15672755      -0.07305187      -0.75279918 
C       0.40497617      -1.33168630      -0.59718256 
C      -0.29670893      -2.20349280       0.20737713 
C       0.35900568      -3.39697339       0.32340615 
C       1.53082296      -3.69484352      -0.25949133 
C       2.25311910      -2.83861174      -1.05903961 
C       1.58524390      -1.64618368      -1.15868142 
F       2.26179441      -0.80886713      -1.93083109 
H      -0.35982321       1.07194788      -2.81203456 
H      -0.24696659       2.79365225      -3.19018528 
H       0.78115317       2.09216369      -1.94969099 
H      -1.43465659       4.39276427      -2.02044213 
H      -3.17382855       5.00638005      -0.39383338 
H      -3.41912071       5.30291280       1.98805243 
H      -5.25141466       6.06605186       3.46169599 
H      -7.29513581       4.69026442       3.73849926 
H      -7.49309666       2.54856597       2.52140521 
H      -5.67083570       1.78309427       1.04359884 
H      -3.89913879      -0.68277706      -0.06771684 
H      -4.68532671      -2.37729647       1.55097864 
H      -4.54659589      -1.94616620       3.99502419 
H      -3.61582302       0.19705115       4.80718335 
H      -2.82536328       1.89651269       3.19378009 
H      -1.22746920      -1.97593153       0.68863577 
H      -0.18388931      -4.09719033       0.95812144 
H       2.02954620      -4.65699905      -0.14872970 
H       3.19129727      -3.06938314      -1.52361385 
47
Properties=species:S:1:pos:R:3 pbc="F F F"
C      -0.26911780       1.95776406      -2.43870271 
C      -1.28314248       2.27645401      -1.39116895 
C      -1.75284675       3.57872170      -1.31030726 
C      -2.70228525       3.92577756      -0.37331367 
C      -3.27278382       3.00895633       0.50690630 
C      -4.33277356       3.44187983       1.43533639 
C      -4.18846077       4.62792799       2.15187153 
C      -5.18509972       5.06736706       2.99928054 
C      -6.36197389       4.35712222       3.15669557 
C      -6.52295257       3.18309691       2.44040907 
C      -5.52545508       2.73794945       1.59853871 
C      -2.83926015       1.68046997       0.43922332 
C      -3.36310526       0.66866802       1.39209228 
C      -3.94260396      -0.51436025       0.91953520 
C      -4.41828531      -1.45797152       1.81740558 
C      -4.33291196      -1.26239789       3.18905766 
C      -3.75997872      -0.09091908       3.66802137 
C      -3.28631730       0.85598360       2.77443120 
C      -1.83464532       1.36417424      -0.48237335 
N      -1.52879306       0.02565336      -0.52745866 
N      -0.32994931      -0.11896835      -0.88140462 
C       0.35245974      -1.27599917      -0.63699899 
C      -0.32867592      -2.03052783       0.30230868 
C       0.45192782      -3.13926656       0.49626202 
C       1.61258274      -3.43220753      -0.08479320 
C       2.30234504      -2.67572559      -1.02043628 
C       1.50393355      -1.56868668      -1.19298398 
F       2.14408727      -0.83831256      -2.08977315 
H      -0.44989113       0.97665921      -2.88447978 
H      -0.27156704       2.69448674      -3.23811865 
H       0.74254608       1.94118048      -2.01793049 
H      -1.35449922       4.31376834      -2.00312506 
H      -3.04960902       4.95774459      -0.34263662 
H      -3.26547047       5.19343647       2.04355816 
H      -5.04961223       5.99207818       3.55703303 
H      -7.14608762       4.70630137       3.81979633 
H      -7.44711241       2.62079276       2.54990992 
H      -5.67536824       1.82151230       1.03100436 
H      -4.02307055      -0.67801809      -0.15276112 
H      -4.86768669      -2.37303555       1.43396882 
H      -4.70491310      -2.00603858       3.88713639 
H      -3.68920904       0.07142769       4.73968309 
H      -2.83562164       1.76978939       3.15925243 
H      -1.25629426      -1.81671361       0.79603938 
H      -0.05347149      -3.75705748       1.22966367 
H       2.20223878      -4.32212238       0.09411239 
H       3.24067431      -2.91296154      -1.48584020 
47
Properties=species:S:1:pos:R:3 pbc="F F F"
C      -0.30992065       1.85870193      -2.49127237 
C      -1.29691745       2.19364162      -1.42602926 
C      -1.70235698       3.50853458      -1.30330620 
C      -2.62590253       3.86434862      -0.34970671 
C      -3.23399689       2.95780022       0.51003779 
C      -4.26433987       3.40545830       1.45518018 
C      -4.06505651       4.55977294       2.20371649 
C      -5.03365939       5.01421464       3.06890821 
C      -6.23841231       4.35728431       3.21998226 
C      -6.45354142       3.21503918       2.47220088 
C      -5.48457446       2.75496390       1.61218138 
C      -2.86478686       1.61675505       0.40509477 
C      -3.42536939       0.61074792       1.33658949 
C      -4.05272847      -0.53631393       0.83883579 
C      -4.55860041      -1.47727927       1.71882370 
C      -4.46350905      -1.32113907       3.09285159 
C      -3.84370742      -0.18560876       3.59645611 
C      -3.33730841       0.75817000       2.72137618 
C      -1.88986966       1.30227192      -0.53339758 
N      -1.69887658      -0.04290164      -0.65408506 
N      -0.51449233      -0.19755079      -1.04770565 
C       0.27414751      -1.21811343      -0.68130775 
C      -0.34687122      -1.86871393       0.38986962 
C       0.53546144      -2.88322562       0.69141325 
C       1.71906289      -3.18024799       0.09564952 
C       2.33581724      -2.52072357      -0.97672092 
C       1.43453936      -1.50604465      -1.25920558 
F       2.00601693      -0.88740394      -2.27358914 
H      -0.53378553       0.89278660      -2.95451974 
H      -0.29118629       2.60383622      -3.27987194 
H       0.70640022       1.79886887      -2.08130472 
H      -1.27284343       4.23939502      -1.98046512 
H      -2.92549103       4.91022466      -0.28796191 
H      -3.11769384       5.08469978       2.10174845 
H      -4.85487569       5.91571681       3.65237241 
H      -7.00169083       4.71972613       3.89880200 
H      -7.40146569       2.69276498       2.57607184 
H      -5.67839427       1.86270137       1.01919123 
H      -4.14141609      -0.67016822      -0.23673869 
H      -5.04366466      -2.36542397       1.31553887 
H      -4.86047025      -2.06433987       3.77669126 
H      -3.76358088      -0.05339939       4.67121993 
H      -2.84797509       1.64403796       3.12562566 
H      -1.28140567      -1.66093812       0.90090535 
H       0.09416876      -3.41187753       1.51543245 
H       2.38145457      -3.98027584       0.35693317 
H       3.28556179      -2.76492043      -1.44858485 
47
Properties=species:S:1:pos:R:3 pbc="F F F"
C      -0.34569045       1.76699666      -2.53778329 
C      -1.30734772       2.11656692      -1.45601704 
C      -1.65020162       3.44218254      -1.29227037 
C      -2.55048307       3.80714619      -0.32313735 
C      -3.19489590       2.90893383       0.51534999 
C      -4.19827078       3.37090091       1.47710155 
C      -3.94640419       4.49210249       2.25666586 
C      -4.88904125       4.96084949       3.13923003 
C      -6.11960022       4.35517485       3.28195768 
C      -6.38659304       3.24627631       2.50357793 
C      -5.44400219       2.77189005       1.62590382 
C      -2.88838724       1.55807440       0.37233470 
C      -3.48626081       0.55606201       1.28160775 
C      -4.15686533      -0.55478008       0.75879160 
C      -4.69293361      -1.49432103       1.61925531 
C      -4.59005284      -1.37694343       2.99541450 
C      -3.92685533      -0.27834217       3.52423320 
C      -3.38844334       0.66433908       2.66899427 
C      -1.93711375       1.23929493      -0.58184020 
N      -1.86078014      -0.11065012      -0.77065871 
N      -0.70855373      -0.34364944      -1.22836790 
C       0.18666970      -1.18009861      -0.72285994 
C      -0.35292718      -1.71301236       0.46722411 
C       0.62062124      -2.60697539       0.88102040 
C       1.83077720      -2.90943040       0.26988886 
C       2.35418560      -2.37275603      -0.92846433 
C       1.36023397      -1.48023319      -1.33118486 
F       1.84777738      -0.98893752      -2.45141281 
H      -0.61017357       0.81982724      -3.01942899 
H      -0.30578050       2.52175962      -3.31479477 
H       0.67233872       1.66422415      -2.13894912 
H      -1.19057862       4.16936243      -1.95267133 
H      -2.80274440       4.86341721      -0.23018927 
H      -2.97714237       4.97697517       2.16216104 
H      -4.66897836       5.83682056       3.74728088 
H      -6.86288961       4.72974197       3.97552964 
H      -7.35600183       2.76360823       2.60043310 
H      -5.67926725       1.90608587       1.00867459 
H      -4.25322250      -0.65831775      -0.31911390 
H      -5.21198067      -2.35360034       1.19642785 
H      -5.01174858      -2.11999465       3.66387693 
H      -3.83848120      -0.17630963       4.60149102 
H      -2.86272713       1.52050977       3.09252076 
H      -1.29482146      -1.50588352       0.98983096 
H       0.25290085      -3.03328379       1.78862941 
H       2.56011349      -3.60348241       0.61467181 
H       3.31451689      -2.62226743      -1.40700870 
47
Properties=species:S:1:pos:R:3 pbc="F F F"
C      -0.37899212       1.67758565      -2.57956797 
C      -1.31576776       2.04062002      -1.48288205 
C      -1.59713981       3.37654063      -1.27892895 
C      -2.47577424       3.75178795      -0.29475226 
C      -3.15550861       2.86059504       0.52183694 
C      -4.13368197       3.33705560       1.50081196 
C      -3.83115496       4.42350291       2.31024513 
C      -4.74900322       4.90617042       3.21025533 
C      -6.00349406       4.35056313       3.34335857 
C      -6.32056508       3.27688955       2.53553021 
C      -5.40308056       2.78849743       1.64022047 
C      -2.91013266       1.50249035       0.33928145 
C      -3.54580352       0.50351192       1.22623820 
C      -4.25608726      -0.56993634       0.67915828 
C      -4.82287239      -1.50865684       1.51874502 
C      -4.71305160      -1.42973838       2.89651918 
C      -4.00931117      -0.36958471       3.45037570 
C      -3.43971149       0.57335301       2.61617091 
C      -1.97793945       1.16970686      -0.63136726 
N      -1.99387612      -0.17634719      -0.87655664 
N      -0.89990748      -0.55887013      -1.37379834 
C       0.10511082      -1.16919158      -0.75094149 
C      -0.35114651      -1.55734141       0.53239623 
C       0.70733200      -2.30062581       1.03783246 
C       1.92841950      -2.60485430       0.42027020 
C       2.35960513      -2.22726160      -0.87684426 
C       1.27729088      -1.49424409      -1.37623462 
F       1.68184233      -1.15177971      -2.58204531 
H      -0.68146614       0.75049071      -3.07513653 
H      -0.31757526       2.44406631      -3.34471900 
H       0.63828301       1.53258482      -2.19366254 
H      -1.10839177       4.10055708      -1.92159772 
H      -2.68100021       4.81519231      -0.17040000 
H      -2.84221873       4.86852743       2.22375240 
H      -4.48929813       5.75439506       3.84166153 
H      -6.72714854       4.73641115       4.05115587 
H      -7.30943025       2.83380621       2.62458715 
H      -5.67769560       1.95128319       1.00005422 
H      -4.35991998      -0.64245710      -0.40018210 
H      -5.37473631      -2.33715300       1.07699423 
H      -5.15950713      -2.17251599       3.54869129 
H      -3.91368049      -0.29770660       4.52948168 
H      -2.87990045       1.39834552       3.05861045 
H      -1.29607966      -1.34979335       1.05742776 
H       0.40956201      -2.60534862       2.01562622 
H       2.72311588      -3.17524922       0.83482734 
H       3.32338237      -2.48002072      -1.35857268 
47
Properties=species:S:1:pos:R:3 pbc="F F F"
C      -0.41346479       1.58589221      -2.62160716 
C      -1.32552626       1.96373507      -1.51017677 
C      -1.54428373       3.30782675      -1.26613743 
C      -2.40128253       3.69498697      -0.26643720 
C      -3.11590286       2.81023435       0.52799646 
C      -4.06903667       3.30226256       1.52568432 
C      -3.71622944       4.35201908       2.36353493 
C      -4.60908974       4.84907334       3.28182617 
C      -5.88616151       4.34374312       3.40499574 
C      -6.25301262       3.30749526       2.56919164 
C      -5.36074740       2.80451616       1.65549473 
C      -2.93166250       1.44717872       0.30450625 
C      -3.60483486       0.45077853       1.16935352 
C      -4.35338255      -0.58287368       0.59940133 
C      -4.95199758      -1.52073896       1.41734316 
C      -4.83463027      -1.48011313       2.79618247 
C      -4.09145403      -0.46068588       3.37387566 
C      -3.49114495       0.48280810       2.56146540 
C      -2.01907660       1.09238084      -0.68415696 
N      -2.08840448      -0.24747960      -0.97982561 
N      -1.06588727      -0.80726764      -1.43456750 
C       0.03707371      -1.17958157      -0.75596581 
C      -0.34397841      -1.39951334       0.58538401 
C       0.78909991      -1.96969771       1.14753392 
C       1.99877354      -2.27061762       0.53496952 
C       2.35306573      -2.07825643      -0.82047299 
C       1.19424156      -1.52832379      -1.37196758 
F       1.52579338      -1.35249097      -2.63541938 
H      -0.75296795       0.67726900      -3.12456624 
H      -0.33033694       2.36485924      -3.37412967 
H       0.60144200       1.39905134      -2.25072182 
H      -1.02684884       4.02833997      -1.89047273 
H      -2.55881057       4.76239208      -0.11048200 
H      -2.70942903       4.75654064       2.28482786 
H      -4.31027465       5.66724332       3.93509422 
H      -6.58958601       4.74072572       4.12708824 
H      -7.25969542       2.90490473       2.65047690 
H      -5.67370262       1.99806407       0.99393573 
H      -4.46459980      -0.62387272      -0.48051958 
H      -5.53614584      -2.31643527       0.95776656 
H      -5.30611070      -2.22203677       3.43149132 
H      -3.98898895      -0.41891834       4.45409317 
H      -2.89922021       1.27520497       3.02206012 
H      -1.28556252      -1.19189290       1.10598509 
H       0.54982206      -2.13694499       2.17490368 
H       2.85453793      -2.70411966       0.99589374 
H       3.31151452      -2.33181161      -1.30080278 
47
Properties=species:S:1:pos:R:3 pbc="F F F"
C      -0.45165226       1.48907780      -2.66791256 
C      -1.33875588       1.88453749      -1.54040952 
C      -1.49265947       3.23298857      -1.25660099 
C      -2.32676332       3.63420231      -0.24014081 
C      -3.07629048       2.75580970       0.53240479 
C      -4.00319761       3.26526521       1.55088389 
C      -3.59904501       4.27643516       2.41518580 
C      -4.46559706       4.78928836       3.35319419 
C      -5.76438575       4.33539358       3.46685819 
C      -6.18207083       3.33873157       2.60505346 
C      -5.31627813       2.81960125       1.67160458 
C      -2.95458276       1.39010348       0.26770459 
C      -3.66420549       0.39578752       1.11058280 
C      -4.45170354      -0.59509873       0.51962752 
C      -5.08343025      -1.53171257       1.31570397 
C      -4.95674479      -1.52887018       2.69523635 
C      -4.17365678      -0.55264720       3.29458202 
C      -3.54234620       0.39067243       2.50409520 
C      -2.06438595       1.00885197      -0.73999014 
N      -2.15502365      -0.33440565      -1.08166942 
N      -1.19220516      -1.03549945      -1.41019797 
C      -0.01605184      -1.19775076      -0.73260146 
C      -0.33006651      -1.24031112       0.63000105 
C       0.85904277      -1.63001989       1.21604822 
C       2.04110730      -1.92448884       0.61648697 
C       2.33490435      -1.92087867      -0.75537546 
C       1.12193385      -1.55415006      -1.31999083 
F       1.38987219      -1.55023669      -2.61288200 
H      -0.82844554       0.59922890      -3.17612780 
H      -0.34732539       2.27934212      -3.40723726 
H       0.55917016       1.25958924      -2.31358758 
H      -0.94664171       3.94877605      -1.86251647 
H      -2.43516728       4.70240501      -0.05276704 
H      -2.57596000       4.63916133       2.34339906 
H      -4.12730236       5.57510880       4.02631203 
H      -6.44614680       4.74407641       4.20368863 
H      -7.20512523       2.97822865       2.67924441 
H      -5.66747977       2.04602087       0.99069903 
H      -4.57059278      -0.60481863      -0.56004859 
H      -5.69960427      -2.29264370       0.83997176 
H      -5.45350591      -2.26907337       3.31348141 
H      -4.06402884      -0.54079268       4.37508089 
H      -2.92006572       1.14910027       2.98149009 
H      -1.26243549      -1.03209525       1.14167122 
H       0.66713684      -1.65566888       2.27232673 
H       2.94904373      -2.21806705       1.10290971 
H       3.28060786      -2.17270107      -1.23154605 
47
Properties=species:S:1:pos:R:3 pbc="F F F"
C      -0.49424992       1.38499957      -2.71907768 
C      -1.35543980       1.80136551      -1.57409609 
C      -1.44272599       3.15062726      -1.25163231 
C      -2.25216771       3.56862240      -0.21688096 
C      -3.03685246       2.69653477       0.53435230 
C      -3.93581566       3.22567359       1.57579635 
C      -3.47864020       4.19678884       2.46420964 
C      -4.31713347       4.72741935       3.42358955 
C      -5.63712355       4.32622151       3.52831798 
C      -6.10723786       3.37086463       2.64283486 
C      -5.26961352       2.83344353       1.68803429 
C      -2.97910827       1.33042341       0.22952027 
C      -3.72431559       0.33773527       1.05031473 
C      -4.55262479      -0.60780151       0.44036589 
C      -5.21858061      -1.54284979       1.21459707 
C      -5.08027203      -1.57683913       2.59474143 
C      -4.25622594      -0.64575312       3.21311430 
C      -3.59261643       0.29618498       2.44422787 
C      -2.11312038       0.92147871      -0.79706831 
N      -2.21583206      -0.43413077      -1.17856868 
N      -1.28241524      -1.21375048      -1.34922426 
C      -0.06641265      -1.20623217      -0.68583323 
C      -0.30435297      -1.07945452       0.67125342 
C       0.91378145      -1.29500268       1.26933436 
C       2.07138894      -1.58437546       0.68116363 
C       2.30491711      -1.75197177      -0.67704768 
C       1.06807895      -1.55598291      -1.24782708 
F       1.26922473      -1.71449322      -2.54679447 
H      -0.90908512       0.51655133      -3.23248909 
H      -0.36980692       2.18490646      -3.44541300 
H       0.51028659       1.11169577      -2.38200661 
H      -0.86829739       3.86024260      -1.83932210 
H      -2.31002900       4.63431484       0.00113330 
H      -2.44086431       4.51637404       2.39828981 
H      -3.93881865       5.47881087       4.11405303 
H      -6.29544338       4.74753043       4.28033116 
H      -7.14515973       3.05411418       2.71079792 
H      -5.65920830       2.09460404       0.99030057 
H      -4.68002145      -0.58721376      -0.63825308 
H      -5.86632230      -2.26732052       0.72473936 
H      -5.60239058      -2.31443586       3.19592681 
H      -4.13856466      -0.66345884       4.29304068 
H      -2.94149565       1.01922799       2.93651190 
H      -1.22761964      -0.87008447       1.17253048 
H       0.76816569      -1.18642484       2.33792222 
H       3.01605444      -1.74194188       1.18499664 
H       3.23599954      -2.00138457      -1.15088056 
47
Properties=species:S:1:pos:R:3 pbc="F F F"
C      -0.54017814       1.27359137      -2.77356729 
C      -1.37424199       1.71398082      -1.61003938 
C      -1.39448085       3.06150715      -1.25091065 
C      -2.17763181       3.49917186      -0.19647739 
C      -2.99771250       2.63298998       0.53397966 
C      -3.86727583       3.18393888       1.60018014 
C      -3.35567233       4.11424057       2.51035170 
C      -4.16460178       4.66461862       3.49261035 
C      -5.50551081       4.31676959       3.58864445 
C      -6.02933767       3.40369639       2.68179427 
C      -5.22133557       2.84587223       1.70415696 
C      -3.00418823       1.26826444       0.19097850 
C      -3.78514701       0.27729358       0.98934766 
C      -4.65597937      -0.62147698       0.36218412 
C      -5.35700973      -1.55496908       1.11463106 
C      -5.20483066      -1.62456891       2.49558545 
C      -4.33919024      -0.73954251       3.13053548 
C      -3.64128497       0.20008106       2.38282781 
C      -2.16316832       0.83162037      -0.85346365 
N      -2.28867770      -0.53299378      -1.27256023 
N      -1.35640721      -1.34997676      -1.30165935 
C      -0.13599663      -1.19459155      -0.62969883 
C      -0.26374818      -0.91567051       0.71229859 
C       0.95252949      -0.96554385       1.34303201 
C       2.11889615      -1.25807652       0.74943923 
C       2.26385845      -1.57079390      -0.58469328 
C       1.03652420      -1.53905926      -1.19261369 
F       1.15052715      -1.84036567      -2.47989220 
H      -0.99381857       0.42962563      -3.29195982 
H      -0.39705285       2.08185483      -3.48757423 
H       0.45572798       0.95614708      -2.45309701 
H      -0.79213924       3.76378033      -1.82061105 
H      -2.18434426       4.55906006       0.05076811 
H      -2.30497342       4.38983694       2.44944998 
H      -3.74630318       5.37993269       4.19763806 
H      -6.13880164       4.75152918       4.35598970 
H      -7.08039888       3.13183039       2.74419793 
H      -5.64900845       2.14321560       0.99236483 
H      -4.79287450      -0.57188135      -0.71462424 
H      -6.03530977      -2.24175936       0.61272957 
H      -5.75213687      -2.35882720       3.07974437 
H      -4.21249161      -0.78635170       4.20907093 
H      -2.96240188       0.88625270       2.88765177 
H      -1.18946784      -0.70407395       1.20825410 
H       0.86732071      -0.73863116       2.40555090 
H       3.07201625      -1.28440447       1.27522645 
H       3.18962333      -1.82129029      -1.06384520 
47
Properties=species:S:1:pos:R:3:forces:R:3 energy=-1604.911933679659 pbc="F F F"
C      -0.58746224       1.15761399      -2.82910274      -0.00139207      -0.00410333      -0.00078183 
C      -1.39340954       1.62417727      -1.64625776      -0.00034319      -0.00496834       0.00442354 
C      -1.34792761       2.96844129      -1.25308352      -0.00219895      -0.00099575       0.00176036 
C      -2.10377969       3.42810426      -0.17808374      -0.00236898       0.00283479       0.00047122 
C      -2.95916238       2.56706002       0.53199474       0.00061388       0.00251889      -0.00096460 
C      -3.79872342       3.14121493       1.62390534      -0.00212225       0.00356665       0.00479462 
C      -3.23231432       4.03094437       2.55371089      -0.00170176      -0.00140778      -0.00142759 
C      -4.01095620       4.60246147       3.55985140       0.00225342      -0.00032625      -0.00127826 
C      -5.37257427       4.30745518       3.64704166      -0.00052105       0.00030496       0.00080852 
C      -5.95034895       3.43656648       2.72088102       0.00177455      -0.00087877       0.00032098 
C      -5.17265388       2.85684722       1.71937805       0.00219601       0.00436097       0.00126401 
C      -3.02838886       1.20488519       0.15332870       0.00471115      -0.00012580      -0.00261218 
C      -3.84617305       0.21633030       0.92890983       0.00126712       0.00019788       0.00199311 
C      -4.75990403      -0.63598283       0.28589427      -0.00045343      -0.00091410       0.00384426 
C      -5.49638751      -1.56816516       1.01673073      -0.00268910      -0.00405170      -0.00074077 
C      -5.32862355      -1.67192420       2.39886878       0.00199409      -0.00405709       0.00110576 
C      -4.42179986      -0.83256784       3.04843190      -0.00071874      -0.00120744       0.00035631 
C      -3.68772560       0.10454019       2.32152813       0.00001212       0.00057163       0.00105615 
C      -2.21291317       0.74104675      -0.90813009       0.00219910       0.00391409      -0.00293116 
N      -2.37752488      -0.62354501      -1.36802386      -0.00208738      -0.00172626      -0.00338903 
N      -1.44481108      -1.46757229      -1.29381679       0.00317115       0.00178898      -0.00166582 
C      -0.22181767      -1.16770164      -0.58260017      -0.00142246      -0.00094120       0.00309710 
C      -0.21893941      -0.74768074       0.75885010       0.00240303       0.00127640      -0.00199016 
C       0.98552960      -0.63589725       1.45850561      -0.00202737      -0.00305715       0.00039185 
C       2.20037399      -0.94093984       0.83961285      -0.00408761      -0.00143974      -0.00249949 
C       2.22233300      -1.38300705      -0.48758776      -0.00409679       0.00050706       0.00037930 
C       1.01252879      -1.51550693      -1.16956843      -0.00180886       0.00034737      -0.00038102 
F       1.02534221      -1.94285253      -2.44498731       0.00117719       0.00045337       0.00037446 
H      -1.07978735       0.34075487      -3.35204618       0.00052077       0.00158824       0.00011371 
H      -0.42714319       1.97336760      -3.53146671       0.00057301      -0.00165428      -0.00131841 
H       0.39793143       0.79763096      -2.52360152       0.00196780       0.00176847       0.00174853 
H      -0.71871963       3.66264972      -1.80508794       0.00025608       0.00034526      -0.00077675 
H      -2.06026137       4.47916529       0.09629691       0.00098485      -0.00186364      -0.00048069 
H      -2.17071466       4.26268810       2.49728885      -0.00178665       0.00317528      -0.00037221 
H      -3.55388674       5.28083322       4.27657576      -0.00118370       0.00342906       0.00088514 
H      -5.97990335       4.75599020       4.42936296      -0.00126791      -0.00112695       0.00073732 
H      -7.01251374       3.20962821       2.77810104       0.00084674       0.00069660      -0.00073659 
H      -5.63706465       2.19105693       0.99636070       0.00115571      -0.00226617      -0.00151539 
H      -4.90689009      -0.55884262      -0.78846559      -0.00003129      -0.00171256      -0.00194704 
H      -6.20342128      -2.21684015       0.50474879      -0.00209815      -0.00114040       0.00085646 
H      -5.90056101      -2.40230946       2.96608744      -0.00061140       0.00267202      -0.00318248 
H      -4.28533886      -0.90778766       4.12481594       0.00130997       0.00070083      -0.00059659 
H      -2.98186784       0.75271187       2.83614540       0.00037326       0.00035121      -0.00095701 
H      -1.16100293      -0.53338333       1.25578393       0.00071530      -0.00030990       0.00039009 
H       0.97470430      -0.31144146       2.49515544      -0.00044025      -0.00028133       0.00013668 
H       3.13117992      -0.84471744       1.39092791       0.00152132       0.00161895       0.00334313 
H       3.15536783      -1.63964688      -0.97923832       0.00346170       0.00156695      -0.00210752 
