35
Properties=species:S:1:pos:R:3:forces:R:3 energy=-1501.4631274522596 pbc="F F F"
C       6.39770458      -1.80850699       2.94949596       0.00267736       0.00501733       0.00189100 
O       5.84707309      -0.66281797       2.31969902      -0.00044951      -0.00248951      -0.00281404 
C       4.60665510      -0.73181235       1.78534378       0.00276001      -0.00216562      -0.00247554 
C       3.79988818      -1.88513507       1.84074202      -0.00085757      -0.00034021      -0.00262596 
C       2.52786397      -1.86292749       1.25012126       0.00459294      -0.00000724      -0.00023283 
C       1.69982744      -3.04400544       1.28670318      -0.00477293      -0.00508728      -0.00112149 
N       1.03252774      -3.98687765       1.30394938       0.00358748       0.00337425      -0.00011563 
C       2.04724447      -0.70021181       0.59724885      -0.00394502      -0.00335537      -0.00303846 
N       0.76316811      -0.75396088       0.00378979      -0.00064365       0.00454621      -0.00361096 
N       0.45504405       0.27697035      -0.70885742       0.00282498      -0.00266742       0.00291906 
C      -0.85515918       0.24693594      -1.26209518       0.00310454      -0.00019211       0.00086264 
C      -1.19615698       1.25264544      -2.18627209      -0.00294504       0.00195967      -0.00253653 
C      -2.46447294       1.28090442      -2.76038617       0.00186384       0.00410052      -0.00222762 
C      -3.40903148       0.31274325      -2.41235201      -0.00107389      -0.00253270       0.00189597 
C      -3.08489331      -0.68695303      -1.48993583       0.00474387       0.00148883       0.00220995 
C      -1.81532719      -0.73963539      -0.90493312      -0.00150535      -0.00025267      -0.00229458 
C      -1.50338835      -1.81146198       0.11712338       0.00276611      -0.00149436       0.00150299 
O      -1.67543273      -1.69326254       1.32667732       0.00093274       0.00224454      -0.00144832 
O      -1.10809396      -3.00132796      -0.41630013      -0.00128575      -0.00006253       0.00065658 
C       2.86208013       0.46745218       0.56815815       0.00142867       0.00105591       0.00071898 
C       2.38495489       1.74065744      -0.09709792      -0.00271441       0.00019825      -0.00238445 
O       2.78822187       2.15984859      -1.17748524      -0.00247999       0.00080670       0.00068088 
O       1.56520340       2.51183525       0.67692756      -0.00170620       0.00040349       0.00079995 
C       4.12729731       0.43768702       1.15012830      -0.00159581       0.00097597      -0.00178404 
H       6.46685437      -2.65078281       2.24596600       0.00232497      -0.00286312       0.00220922 
H       5.79243907      -2.11501632       3.81499804       0.00017127       0.00223055       0.00241178 
H       7.40112000      -1.54206787       3.28975247      -0.00102851       0.00135359       0.00214894 
H       4.14291193      -2.79164429       2.32824569      -0.00111412      -0.00290241       0.00092585 
H      -0.45192536       1.99746665      -2.45658014       0.00090202       0.00220350      -0.00061660 
H      -2.71954242       2.05668862      -3.47791339       0.00040795      -0.00146038       0.00062070 
H      -4.40063790       0.33485515      -2.85705171      -0.00052309      -0.00047611       0.00124753 
H      -3.82861072      -1.43394906      -1.22184851       0.00076973       0.00096570       0.00041861 
H      -0.84536994      -3.60992060       0.30055466      -0.00466201      -0.00063831       0.00180359 
H       1.35056401       3.32744719       0.19682176      -0.00112434      -0.00238060       0.00216172 
H       4.76017835       1.32092831       1.12627436      -0.00143128      -0.00155706       0.00124112 
35
Properties=species:S:1:pos:R:3 pbc="F F F"
C       6.19492925      -1.72478101       3.09079752 
O       5.72448436      -0.57176459       2.40510882 
C       4.52336748      -0.67160830       1.79271176 
C       3.72000642      -1.82601986       1.82231757 
C       2.49907878      -1.83944294       1.15426344 
C       1.67425555      -3.01557472       1.15846628 
N       1.01970563      -3.96472504       1.17254136 
C       2.11142685      -0.67316355       0.46638301 
N       0.88670959      -0.85336478      -0.20079248 
N       0.59994451       0.17513332      -0.88828633 
C      -0.76715713       0.15643467      -1.25053523 
C      -1.11233932       1.26700831      -2.04374868 
C      -2.44363246       1.32843142      -2.45964526 
C      -3.40964003       0.35735548      -2.12317285 
C      -3.10816896      -0.76808582      -1.33584399 
C      -1.75857022      -0.84561051      -0.92930218 
C      -1.40771446      -2.02618207      -0.01396067 
O      -1.55789912      -1.86292238       1.18642552 
O      -1.23476999      -3.23443584      -0.67046442 
C       2.91878485       0.49304183       0.44024049 
C       2.50787855       1.75773019      -0.30430689 
O       2.83961509       2.08567236      -1.43912032 
O       1.83453348       2.63440469       0.51090682 
C       4.13435013       0.49947132       1.10910302 
H       6.31004652      -2.57864691       2.40936039 
H       5.52406450      -1.99532884       3.91790962 
H       7.16990033      -1.43934632       3.48945771 
H       4.00449424      -2.73232409       2.34529833 
H      -0.36484728       2.00632031      -2.32422135 
H      -2.71008484       2.18757618      -3.07594303 
H      -4.44498361       0.42574343      -2.45799067 
H      -3.84606621      -1.52447479      -1.06756567 
H      -1.00351572      -3.83317244       0.06829929 
H       1.66670596       3.43647012      -0.00992810 
H       4.76588691       1.38296943       1.10484923 
35
Properties=species:S:1:pos:R:3 pbc="F F F"
C       5.99453729      -1.63404322       3.23683762 
O       5.60099124      -0.48284235       2.49682325 
C       4.44438330      -0.60820264       1.80840337 
C       3.64599076      -1.76483077       1.81834274 
C       2.47915282      -1.81478161       1.07730294 
C       1.66555991      -2.99675516       1.04842258 
N       1.01677343      -3.94944158       1.05215820 
C       2.16389717      -0.64470975       0.35431857 
N       1.03425575      -0.96754216      -0.42733333 
N       0.74692625       0.03181583      -1.14143495 
C      -0.68317093       0.07580888      -1.24951842 
C      -1.05340785       1.27988689      -1.89706752 
C      -2.43051265       1.39637711      -2.15846678 
C      -3.42377861       0.41896483      -1.82859650 
C      -3.12830957      -0.81496974      -1.18140843 
C      -1.72353296      -0.93877756      -0.91243099 
C      -1.26613621      -2.26284940      -0.30552074 
O      -1.39961279      -2.04711206       1.04388020 
O      -1.41755007      -3.51879353      -0.90087669 
C       2.97123816       0.53334583       0.32100361 
C       2.62613116       1.78029457      -0.50617615 
O       2.86826171       1.98422064      -1.69232679 
O       2.11794712       2.74836341       0.32570724 
C       4.13704490       0.55626375       1.07551326 
H       6.15453034      -2.50145963       2.58336088 
H       5.26229829      -1.86928216       4.02076490 
H       6.93838842      -1.33160414       3.69151130 
H       3.87215608      -2.66782973       2.37517725 
H      -0.31017665       2.01742308      -2.19531959 
H      -2.71185267       2.33294547      -2.65981292 
H      -4.49329660       0.54269755      -2.04643905 
H      -3.85168760      -1.59084038      -0.91951277 
H      -1.14801230      -4.05873098      -0.12852120 
H       1.99009155       3.54179637      -0.21714141 
H       4.77126142       1.43798262       1.08798837 
35
Properties=species:S:1:pos:R:3 pbc="F F F"
C       5.82122478      -1.54658173       3.36878978 
O       5.49128649      -0.40413369       2.58281663 
C       4.37712121      -0.54732133       1.82975854 
C       3.58566890      -1.70727149       1.82773574 
C       2.46776011      -1.78454812       1.02024601 
C       1.69301551      -2.99678201       0.95659024 
N       1.05487298      -3.95616430       0.94857555 
C       2.18580375      -0.61412309       0.26275817 
N       1.18600948      -1.05666907      -0.64463214 
N       0.82926685      -0.13943005      -1.43232778 
C      -0.63424844      -0.01846868      -1.24093612 
C      -1.00503340       1.26069576      -1.74677846 
C      -2.40288210       1.44546000      -1.88226391 
C      -3.41478712       0.46326086      -1.55072417 
C      -3.10996435      -0.83005872      -0.99582498 
C      -1.68739253      -1.06553030      -0.83008341 
C      -1.19365063      -2.48379961      -1.26799148 
O      -1.28467335      -2.13733754       1.21256538 
O      -1.66581070      -3.70533900      -0.98591285 
C       3.00691827       0.57420953       0.22479984 
C       2.72549310       1.79153645      -0.67090574 
O       2.86202989       1.88700480      -1.88919358 
O       2.36905242       2.83919528       0.15305381 
C       4.13083387       0.60234940       1.05270868 
H       6.01924774      -2.42734648       2.74496736 
H       5.04017489      -1.75264135       4.11227738 
H       6.73596135      -1.23027608       3.86981577 
H       3.76404536      -2.60413739       2.41380465 
H      -0.27695999       2.00687207      -2.06113240 
H      -2.69249985       2.43779055      -2.27394947 
H      -4.49847645       0.64234325      -1.66889029 
H      -3.83297987      -1.62125610      -0.78170604 
H      -1.23698024      -4.20661974      -0.27410388 
H       2.27800914       3.61886964      -0.41454159 
H       4.77332255       1.47903657       1.08024681 
35
Properties=species:S:1:pos:R:3 pbc="F F F"
C       5.61879168      -1.43588744       3.52129883 
O       5.36020400      -0.30897889       2.68542905 
C       4.30127383      -0.46659435       1.85989938 
C       3.52196224      -1.63077780       1.84989612 
C       2.47065148      -1.73465148       0.95059421 
C       1.85003398      -3.05438248       0.87516004 
N       1.26919724      -4.04795885       0.89570296 
C       2.20453788      -0.57061344       0.15504228 
N       1.40868095      -1.09041187      -0.90428412 
N       0.81875687      -0.36551279      -1.74906812 
C      -0.59747179      -0.18259239      -1.26133419 
C      -0.92891266       1.18179527      -1.56155736 
C      -2.32694230       1.46094241      -1.54995764 
C      -3.36177966       0.48911605      -1.21121842 
C      -3.05303104      -0.84967975      -0.75094552 
C      -1.68068415      -1.27210823      -0.95621931 
C      -1.58270444      -2.63691911      -1.92825166 
O      -1.18450526      -2.31950922       0.88478461 
O      -1.81334821      -3.60680943      -0.98785279 
C       3.04482897       0.61860251       0.12215204 
C       2.83061149       1.78718917      -0.84280176 
O       2.81901951       1.78746400      -2.07339187 
O       2.66272024       2.92720011      -0.05922657 
C       4.11364343       0.65416089       1.03188122 
H       5.86073471      -2.33293545       2.93736137 
H       4.78649848      -1.61163131       4.21550713 
H       6.49711014      -1.10425854       4.07360340 
H       3.65398122      -2.51336192       2.47290468 
H      -0.22598528       1.95082663      -1.87832692 
H      -2.61563266       2.49896147      -1.80448550 
H      -4.43893443       0.74250736      -1.22142974 
H      -3.83858517      -1.59582590      -0.59655078 
H      -1.36374870      -4.35104597      -0.55826376 
H       2.60862441       3.67676880      -0.66904248 
H       4.77118260       1.51970024       1.08260327 
35
Properties=species:S:1:pos:R:3 pbc="F F F"
C       5.48064826      -1.35206270       3.62281176 
O       5.27071374      -0.23825236       2.75494341 
C       4.25169615      -0.39980954       1.88204022 
C       3.47235611      -1.56301836       1.87330719 
C       2.44809668      -1.69331320       0.92711825 
C       1.92252837      -3.08099559       0.98247953 
N       1.42886518      -4.10996305       1.13232379 
C       2.21485659      -0.52920546       0.09140457 
N       1.61037535      -1.00290100      -1.10371334 
N       0.76758966      -0.52051586      -1.91592404 
C      -0.56738984      -0.23748111      -1.29544117 
C      -0.86952934       1.13272320      -1.43825546 
C      -2.25515811       1.46575379      -1.31118799 
C      -3.32200759       0.50841488      -0.96221863 
C      -3.03527558      -0.86219606      -0.54176853 
C      -1.81433391      -1.19148167      -1.07658967 
C      -1.96402615      -2.78048526      -2.04387488 
O      -0.62059873      -2.76754995      -0.25482616 
O      -2.11557851      -3.73633237      -1.04400900 
C       3.07411943       0.65266247       0.05716632 
C       2.90527132       1.78984253      -0.95004172 
O       2.76901041       1.73798076      -2.17184862 
O       2.88116576       2.97221730      -0.22472969 
C       4.09757447       0.69337450       1.01979007 
H       5.75539164      -2.26007999       3.06994188 
H       4.61719214      -1.50707510       4.28419863 
H       6.33292536      -1.01063936       4.20754810 
H       3.60010872      -2.41761171       2.53806573 
H      -0.16866801       1.90424656      -1.74372557 
H      -2.52647837       2.52697878      -1.46168393 
H      -4.37258737       0.84750197      -0.90021054 
H      -3.88424669      -1.51721833      -0.38334403 
H      -1.53562308      -4.48655885      -0.79630346 
H       2.84501830       3.69740819      -0.86383128 
H       4.76677722       1.54843025       1.09000032 
35
Properties=species:S:1:pos:R:3 pbc="F F F"
C       5.36112934      -1.29673872       3.67022511 
O       5.18045270      -0.20183068       2.77685520 
C       4.18403161      -0.38463576       1.87637879 
C       3.38452979      -1.53330270       1.83762808 
C       2.37247058      -1.63053870       0.87764405 
C       1.66114116      -2.88660385       0.96611380 
N       1.09858349      -3.88103533       1.08230208 
C       2.19693320      -0.50239878       0.02242464 
N       1.70244081      -0.90395569      -1.24420857 
N       0.75076327      -0.58471875      -2.01786468 
C      -0.51885996      -0.29746276      -1.24407210 
C      -0.82068543       1.09641980      -1.33073561 
C      -2.17947248       1.46443281      -1.10198176 
C      -3.27633679       0.54658438      -0.76208033 
C      -3.01849936      -0.91478166      -0.56284778 
C      -1.68838136      -1.27807853      -0.91351734 
C      -1.52344545      -2.80822025      -1.45351922 
O      -0.34388306      -3.12763674      -1.49118266 
O      -2.21666712      -3.91382153      -0.94560415 
C       3.08461792       0.65629728       0.00202041 
C       2.95924859       1.78439260      -1.02788630 
O       2.71534320       1.71714625      -2.23148138 
O       3.07848751       2.98496246      -0.37317456 
C       4.07279817       0.70690129       0.99910628 
H       5.64159056      -2.21540517       3.13960344 
H       4.47187411      -1.44119618       4.29778554 
H       6.19517117      -0.94987983       4.27938029 
H       3.47324211      -2.39076497       2.50289397 
H      -0.11545434       1.87011931      -1.62568805 
H      -2.43744417       2.54031337      -1.16348972 
H      -4.31445347       0.90037674      -0.59242748 
H      -3.91225137      -1.51565833      -0.37286951 
H      -1.55178011      -4.64428492      -0.88105051 
H       3.04419182       3.69299603      -1.03076972 
H       4.74935295       1.55479578       1.08570180 
35
Properties=species:S:1:pos:R:3 pbc="F F F"
C       5.14124642      -1.17952796       3.76997626 
O       5.01819977      -0.11810966       2.83166130 
C       4.07657159      -0.32761765       1.87319070 
C       3.25908201      -1.46507429       1.78783194 
C       2.31903260      -1.58087322       0.76579007 
C       1.52141241      -2.76450540       0.72342635 
N       0.90328267      -3.73395627       0.77265881 
C       2.22000489      -0.49086942      -0.13914572 
N       1.78636374      -0.86939918      -1.44474131 
N       0.73014249      -0.68452133      -2.11716114 
C      -0.45133828      -0.37632444      -1.24645740 
C      -0.73977877       1.02453992      -1.16599671 
C      -2.04522132       1.38928996      -0.76388818 
C      -3.11502322       0.46878996      -0.43808617 
C      -2.92260105      -0.98599055      -0.53409468 
C      -1.62056537      -1.37325287      -0.98439182 
C      -1.25721090      -2.89898891      -1.18033106 
O      -0.27684351      -3.22081389      -1.83867508 
O      -2.32884736      -3.86116132      -0.99488015 
C       3.10795928       0.65323689      -0.09549095 
C       3.03849919       1.76389716      -1.15091593 
O       2.64233734       1.70916755      -2.31260470 
O       3.40129224       2.96041914      -0.63170591 
C       4.02483148       0.74233745       0.96124129 
H       5.44493313      -2.11625412       3.28586106 
H       4.21075487      -1.30796884       4.33829380 
H       5.93528730      -0.82248872       4.42644454 
H       3.30190563      -2.30148961       2.48009245 
H      -0.01817832       1.79083269      -1.43757781 
H      -2.26240753       2.47072815      -0.68094511 
H      -4.12856295       0.77372941      -0.11544153 
H      -3.76290623      -1.64696556      -0.30673032 
H      -1.75451212      -4.63513294      -1.15473259 
H       3.36009688       3.64165040      -1.31508291 
H       4.70154061       1.58545576       1.08222069 
35
Properties=species:S:1:pos:R:3 pbc="F F F"
C       4.91280218      -1.05303892       3.86284784 
O       4.85123709      -0.02769527       2.88151526 
C       3.97563219      -0.25412778       1.86421572 
C       3.15307117      -1.38544572       1.74314113 
C       2.28754523      -1.52338443       0.65548963 
C       1.47853329      -2.69760923       0.56294717 
N       0.84813341      -3.66071027       0.58015408 
C       2.26207746      -0.47904820      -0.29952371 
N       1.83239671      -0.81998279      -1.62048842 
N       0.69803016      -0.76912367      -2.16199350 
C      -0.40696962      -0.44751650      -1.25409140 
C      -0.64754077       0.93116660      -1.00028465 
C      -1.89086081       1.27221903      -0.44190371 
C      -2.92693569       0.33601495      -0.13979545 
C      -2.79298946      -1.06017538      -0.41446951 
C      -1.54089965      -1.42393790      -1.00868362 
C      -1.30264161      -2.90237471      -1.35371174 
O      -0.38586537      -3.20139598      -2.08516249 
O      -2.36272084      -3.79115823      -1.06753280 
C       3.13664108       0.65519605      -0.19360471 
C       3.11183457       1.74118602      -1.26287365 
O       2.58214770       1.72622797      -2.37204343 
O       3.71705520       2.88881955      -0.87717322 
C       3.97745992       0.78337400       0.91579245 
H       5.23954090      -2.00814165       3.43094716 
H       3.94580810      -1.16904083       4.37082068 
H       5.66137660      -0.68782197       4.56754560 
H       3.15271255      -2.19605813       2.46519463 
H       0.09260108       1.68576956      -1.25022855 
H      -2.05350947       2.33854384      -0.22819090 
H      -3.89474476       0.61179017       0.30398836 
H      -3.59973733      -1.76460645      -0.20364431 
H      -1.95139490      -4.61280484      -1.39222591 
H       3.66072978       3.54486163      -1.58522984 
H       4.64022356       1.63281775       1.05786786 
35
Properties=species:S:1:pos:R:3 pbc="F F F"
C       4.67641212      -0.92572538       3.94184298 
O       4.67789719       0.05979199       2.92059346 
C       3.87779427      -0.17383844       1.84451427 
C       3.05485500      -1.30147494       1.69180754 
C       2.26620282      -1.45651214       0.54325541 
C       1.45570714      -2.63490200       0.42890487 
N       0.82029504      -3.59634313       0.42505471 
C       2.30584985      -0.45670127      -0.45490026 
N       1.84543440      -0.75243612      -1.77769482 
N       0.65762007      -0.83099194      -2.17312530 
C      -0.39792400      -0.52529953      -1.24488381 
C      -0.55353779       0.81120698      -0.82449614 
C      -1.72044882       1.13698173      -0.12860376 
C      -2.73673660       0.19952578       0.14666946 
C      -2.65422340      -1.13117344      -0.28885179 
C      -1.48331368      -1.46119194      -1.01234914 
C      -1.36739360      -2.87307628      -1.53587240 
O      -0.47966182      -3.19391190      -2.30632761 
O      -2.39733245      -3.73985114      -1.20347871 
C       3.16753586       0.66854381      -0.29891716 
C       3.19180707       1.72643216      -1.36997394 
O       2.55282903       1.75696248      -2.42057241 
O       4.00606713       2.78658945      -1.10045760 
C       3.93350440       0.82498822       0.85826071 
H       5.02233468      -1.89840765       3.56475784 
H       3.67709663      -1.03389912       4.38719021 
H       5.37428558      -0.55626536       4.69586412 
H       3.00761388      -2.08644564       2.43954133 
H       0.20243638       1.55563653      -1.05612348 
H      -1.82525400       2.17032145       0.20537391 
H      -3.64053889       0.46306928       0.69717782 
H      -3.45103655      -1.84771457      -0.09433434 
H      -2.13258659      -4.57584247      -1.62136070 
H       3.94818634       3.41887886      -1.83273861 
H       4.57900289       1.68586396       1.00386539 
35
Properties=species:S:1:pos:R:3:forces:R:3 energy=-1501.4745698781787 pbc="F F F"
C       4.43387546      -0.80094608       4.01117979      -0.00281265      -0.00118722       0.00166087 
O       4.49801470       0.13920256       2.95278064      -0.00013643       0.00183775       0.00008766 
C       3.78181023      -0.09164638       1.81822996      -0.00126004       0.00230326      -0.00216940 
C       2.95855830      -1.21634057       1.63293912       0.00020238      -0.00039260       0.00002472 
C       2.24686997      -1.38423859       0.42994598      -0.00315623       0.00014185       0.00027498 
C       1.43391101      -2.56842960       0.29339220       0.00373090       0.00502759       0.00005388 
N       0.79613652      -3.53023473       0.26774203      -0.00337211      -0.00419663       0.00205831 
C       2.33912555      -0.41864323      -0.60451316       0.00049944      -0.00097983      -0.00074020 
N       1.84162636      -0.68760663      -1.92205079       0.00035129      -0.00093067       0.00219899 
N       0.62517624      -0.88625617      -2.17728202       0.00168099       0.00079340      -0.00106411 
C      -0.39384230      -0.59939131      -1.21687891      -0.00089024       0.00129606       0.00132805 
C      -0.46924707       0.67934845      -0.63427695       0.00243637      -0.00075264      -0.00048050 
C      -1.54741537       1.00943707       0.18468361       0.00398834       0.00121745      -0.00169369 
C      -2.55834647       0.07591331       0.43503172      -0.00018061       0.00070023      -0.00124027 
C      -2.50638836      -1.18253413      -0.16230272      -0.00052785      -0.00292551       0.00053804 
C      -1.44321137      -1.53186859      -1.01143876       0.00206441       0.00286737       0.00084879 
C      -1.40210931      -2.85664156      -1.68548628       0.00139164       0.00094731       0.00177721 
O      -0.55489232      -3.21111343      -2.50043299      -0.00068413      -0.00153754      -0.00485824 
O      -2.43227864      -3.70134199      -1.37135549       0.00123231      -0.00026079      -0.00039018 
C       3.19954042       0.69915001      -0.41518845      -0.00038987       0.00074340      -0.00027877 
C       3.29172078       1.72692685      -1.48506774       0.00083886      -0.00016217      -0.00023402 
O       2.56392901       1.77560121      -2.47364479      -0.00193739       0.00058509      -0.00067190 
O       4.25616471       2.67748066      -1.30539201      -0.00036800      -0.00278486       0.00246813 
C       3.89296675       0.86413592       0.79145394       0.00010565      -0.00416776       0.00169475 
H       4.79427431      -1.78970930       3.68917516      -0.00121545       0.00319254      -0.00031559 
H       3.40630007      -0.90486307       4.39162506      -0.00013959       0.00132397       0.00095842 
H       5.07590636      -0.43164187       4.81489860      -0.00068811       0.00087693      -0.00045423 
H       2.86234232      -1.97545936       2.40259650       0.00094800      -0.00059250      -0.00109994 
H       0.30289965       1.41168750      -0.85497968       0.00077757      -0.00185678       0.00192490 
H      -1.60215643       2.00003946       0.63013727       0.00323350      -0.00217288       0.00061670 
H      -3.39131321       0.33671227       1.08231149      -0.00014267      -0.00153058       0.00017522 
H      -3.29832494      -1.90514710       0.01537391      -0.00100690      -0.00026680      -0.00098714 
H      -2.30167189      -4.53599383      -1.84883134      -0.00225588       0.00116951       0.00007563 
H       4.23336590       3.29283557      -2.05551338      -0.00122861       0.00036525      -0.00099831 
H       4.52746270       1.73436497       0.93075052      -0.00108888       0.00130877      -0.00108877 
