36
Properties=species:S:1:pos:R:3:forces:R:3 energy=-1539.912725745205 pbc="F F F"
C      -6.67600804       2.27980759      -1.54557448       0.00047232       0.00015324      -0.00113247 
O      -5.85853951       1.22669336      -2.02807843       0.00114767       0.00091036       0.00265351 
C      -4.66268044       0.99120644      -1.45893102       0.00000894      -0.00157136      -0.00164903 
C      -4.15370154       1.75160085      -0.38429501      -0.00198547       0.00184814      -0.00078505 
C      -2.90785670       1.43055044       0.13768486      -0.00021964      -0.00079785      -0.00020569 
C      -2.12852884       0.36438575      -0.36211846       0.00093543      -0.00106253      -0.00111425 
N      -0.89102579       0.17564210       0.28823359      -0.00107151       0.00149014       0.00142080 
N      -0.14498478      -0.80712284      -0.11985566       0.00208504      -0.00325537       0.00015068 
C       1.06454006      -0.98705267       0.61368431      -0.00344113       0.00046598       0.00056341 
C       1.19323431      -0.49832797       1.93195198       0.00251988      -0.00464743       0.00009192 
C       2.36436517      -0.75094049       2.64441097       0.00103243      -0.00089033       0.00134551 
F       2.47666231      -0.28502975       3.89476308       0.00004629       0.00174352      -0.00146103 
C       3.42518704      -1.48322879       2.09304884       0.00114141       0.00087527       0.00200902 
C       3.28680538      -1.96745997       0.79502008      -0.00236581      -0.00089984      -0.00045507 
C       2.12255544      -1.74588017       0.03460948      -0.00138654       0.00141080      -0.00056454 
C       2.13312159      -2.33403447      -1.35864784       0.00026386      -0.00226539      -0.00067485 
O       3.09958264      -2.96476762      -1.77230184      -0.00394909       0.00332349       0.00127773 
O       1.04011473      -2.15126641      -2.14440171      -0.00043902       0.00169074      -0.00120562 
C      -2.64017867      -0.41291987      -1.46211638       0.00050712       0.00021337       0.00114566 
O      -1.85145797      -1.40743749      -1.90351864       0.00119765       0.00176848      -0.00167620 
C      -2.18230473      -2.23879938      -3.01023132       0.00291974       0.00095008      -0.00103629 
C      -3.91220741      -0.09096277      -2.00692124      -0.00152747       0.00152346       0.00083430 
C      -4.54253349      -0.79231185      -3.09838052      -0.00386788      -0.00384861      -0.00421463 
N      -5.12385194      -1.29571759      -3.96169365       0.00149735       0.00428281       0.00459230 
H      -6.94375098       2.12200888      -0.49083366       0.00186749      -0.00079853       0.00049299 
H      -7.58622428       2.28602230      -2.14948338       0.00028749      -0.00093330       0.00028329 
H      -6.17083247       3.25139762      -1.64457375       0.00250662      -0.00055225      -0.00137688 
H      -4.71898999       2.57621051       0.03502656       0.00157745       0.00056789      -0.00045102 
H      -2.50962984       2.01164578       0.96511448       0.00000564      -0.00060211       0.00121952 
H       0.37806632       0.06019098       2.38229136      -0.00233845       0.00021760       0.00129818 
H       4.32480064      -1.66965933       2.67096366      -0.00043721       0.00274136      -0.00101777 
H       4.08665569      -2.54144933       0.33382525       0.00353102      -0.00076359       0.00005873 
H       0.32910881      -1.65079356      -1.68187535      -0.00057381       0.00030668       0.00067205 
H      -3.08455649      -2.82573403      -2.80149346      -0.00157836      -0.00220056       0.00095667 
H      -1.33779791      -2.91754904      -3.15394942       0.00096235       0.00010130      -0.00122980 
H      -2.32191000      -1.64133012      -3.91876067      -0.00133179      -0.00149564      -0.00081610 
36
Properties=species:S:1:pos:R:3 pbc="F F F"
C      -6.54311947       2.37512073      -1.55055819 
O      -5.73452629       1.33313095      -2.07340918 
C      -4.59749557       1.00597198      -1.43420922 
C      -4.16603774       1.65858360      -0.26005582 
C      -2.98013050       1.24996716       0.33166601 
C      -2.22422910       0.21251692      -0.24486635 
N      -1.06504390      -0.12117182       0.45005329 
N      -0.31019288      -1.08917445       0.03556161 
C       0.97744397      -1.05167459       0.63683648 
C       1.10723815      -0.44424376       1.90336004 
C       2.35217026      -0.52541213       2.51767588 
F       2.48212260       0.06789621       3.71024260 
C       3.41919814      -1.21172920       1.92830875 
C       3.27346098      -1.83156611       0.69322402 
C       2.04230791      -1.77485716       0.02524908 
C       2.06989125      -2.49705150      -1.30519879 
O       3.02807979      -3.08694461      -1.78768266 
O       0.91964202      -2.44621346      -2.00897403 
C      -2.62898678      -0.47268536      -1.43761454 
O      -1.85993844      -1.46681597      -1.91340870 
C      -2.14216427      -2.24643852      -3.07233932 
C      -3.84512731      -0.04961814      -2.02572987 
C      -4.40113055      -0.64833021      -3.20950095 
N      -4.91590996      -1.07174391      -4.15327405 
H      -6.90173997       2.13542615      -0.53904160 
H      -7.40095157       2.47112715      -2.21965019 
H      -5.99902928       3.33036542      -1.52544349 
H      -4.72832340       2.46449624       0.19849919 
H      -2.64114461       1.74799573       1.23527213 
H       0.29470284       0.07616824       2.40281008 
H       4.37043233      -1.26738277       2.44561275 
H       4.08598674      -2.37425049       0.21723012 
H       0.23003670      -1.97538164      -1.48839055 
H      -3.09631110      -2.76747082      -2.92608761 
H      -1.40251665      -3.03755806      -3.23506616 
H      -2.09341604      -1.60346466      -3.95850815 
36
Properties=species:S:1:pos:R:3 pbc="F F F"
C      -6.42578226       2.45395267      -1.55092877 
O      -5.61303067       1.42738374      -2.09864515 
C      -4.53077633       1.01926592      -1.41113070 
C      -4.17252682       1.57352087      -0.16390472 
C      -3.04328254       1.07964191       0.47518350 
C      -2.26835381       0.08914183      -0.15626655 
N      -1.28328019      -0.48724829       0.64129960 
N      -0.43946981      -1.36101546       0.20591385 
C       0.89077121      -1.08766279       0.63864878 
C       1.04466612      -0.39183495       1.85650261 
C       2.33004630      -0.32365356       2.38264947 
F       2.47988584       0.37126069       3.51701003 
C       3.40320629      -0.97005788       1.76271894 
C       3.24530811      -1.69571390       0.58927289 
C       1.97312455      -1.77213931       0.00889511 
C       2.00096909      -2.59790426      -1.26266387 
O       2.95289225      -3.15801860      -1.79129154 
O       0.78745436      -2.77400847      -1.81092613 
C      -2.59309401      -0.50670413      -1.41932369 
O      -1.82527834      -1.49077574      -1.92639160 
C      -2.10301326      -2.22629367      -3.12877720 
C      -3.76438912      -0.00674848      -2.03634331 
C      -4.25297673      -0.50325969      -3.29474258 
N      -4.71595177      -0.85938696      -4.29200365 
H      -6.86149108       2.15179065      -0.58738528 
H      -7.23294406       2.62848006      -2.26561308 
H      -5.85910902       3.38701006      -1.41770345 
H      -4.74396085       2.35912768       0.31886497 
H      -2.77469313       1.50173834       1.43910511 
H       0.23759524       0.09764129       2.39505133 
H       4.38601697      -0.91110004       2.21601442 
H       4.06706190      -2.21044139       0.09819667 
H       0.09262727      -2.38984440      -1.23053475 
H      -3.09984126      -2.68311849      -3.04023430 
H      -1.46612633      -3.10150010      -3.33402597 
H      -1.84700578      -1.56393803      -3.96389836 
36
Properties=species:S:1:pos:R:3 pbc="F F F"
C      -6.31576316       2.51769325      -1.54192917 
O      -5.48898572       1.50896771      -2.10214329 
C      -4.45659005       1.02635366      -1.38502033 
C      -4.16947808       1.48771916      -0.08372016 
C      -3.09325665       0.90960176       0.58196668 
C      -2.27712326      -0.04109169      -0.06834075 
N      -1.49187714      -0.83396652       0.79654542 
N      -0.53985576      -1.58370943       0.36126016 
C       0.78616244      -1.12432296       0.62396565 
C       0.96920753      -0.34460909       1.78328665 
C       2.27253304      -0.14722226       2.22683349 
F       2.43833089       0.63179804       3.30236356 
C       3.35243635      -0.75535389       1.58324856 
C       3.18086602      -1.56637259       0.47026606 
C       1.88561866      -1.75748772      -0.02858323 
C       1.89679993      -2.66892582      -1.23954979 
O       2.85724685      -3.19546506      -1.79170430 
O       0.66753535      -3.11857189      -1.55634917 
C      -2.52865380      -0.53283118      -1.39242154 
O      -1.76898866      -1.52229290      -1.91369315 
C      -2.01250412      -2.16995179      -3.18164076 
C      -3.65992508       0.03578694      -2.02952250 
C      -4.07644351      -0.35106908      -3.35316988 
N      -4.50431120      -0.64929208      -4.38494447 
H      -6.81814949       2.16498048      -0.62923274 
H      -7.07394763       2.76208512      -2.28915281 
H      -5.73878807       3.42519007      -1.31111640 
H      -4.75773403       2.25199970       0.41352992 
H      -2.90486014       1.25984981       1.59335912 
H       0.16458267       0.11638309       2.34830954 
H       4.35223491      -0.59395746       1.96915150 
H       4.01068490      -2.05380720      -0.03474505 
H      -0.03002580      -2.77013646      -0.95823927 
H      -3.05057026      -2.55572813      -3.07762943 
H      -1.55118990      -3.15635549      -3.37767290 
H      -1.54996970      -1.53830098      -3.96097261 
36
Properties=species:S:1:pos:R:3 pbc="F F F"
C      -6.21368888       2.57514443      -1.51542044 
O      -5.37199360       1.58278946      -2.07857492 
C      -4.38622084       1.02622360      -1.35061669 
C      -4.16517208       1.39979695      -0.01272852 
C      -3.14281559       0.74231519       0.66433641 
C      -2.30565490      -0.18964054       0.01215528 
N      -1.63235062      -1.08620741       0.88780257 
N      -0.60913629      -1.74846110       0.49126641 
C       0.69019485      -1.17286074       0.61344149 
C       0.88505158      -0.30649599       1.70268072 
C       2.19077466       0.01164925       2.05552707 
F       2.36127132       0.86805092       3.06813585 
C       3.27383603      -0.55957041       1.38734636 
C       3.09194119      -1.44826356       0.33901862 
C       1.79061159      -1.75621249      -0.07470874 
C       1.77626461      -2.76140462      -1.20268576 
O       2.74973868      -3.22775119      -1.78466929 
O       0.60239438      -3.42750524      -1.28079985 
C      -2.48123304      -0.58979990      -1.35829433 
O      -1.70910602      -1.56742586      -1.88637192 
C      -1.89741811      -2.21189995      -3.14410878 
C      -3.56335874       0.06535656      -2.00853361 
C      -3.91137800      -0.16197036      -3.39196162 
N      -4.31232401      -0.36889650      -4.45931064 
H      -6.77379901       2.17833897      -0.65613958 
H      -6.92276266       2.88107030      -2.28773170 
H      -5.63201607       3.45256211      -1.19736284 
H      -4.76902458       2.14419240       0.49535406 
H      -3.02670735       1.01871175       1.70932565 
H       0.08183794       0.12667126       2.28935645 
H       4.27814029      -0.30293740       1.70250037 
H       3.92608778      -1.90960079      -0.18213732 
H      -0.10073558      -3.04566598      -0.71187413 
H      -2.95212798      -2.26236428      -3.42228587 
H      -1.57848759      -3.25833899      -3.22097466 
H      -1.26538505      -1.64201272      -3.82836350 
36
Properties=species:S:1:pos:R:3 pbc="F F F"
C      -6.11734802       2.62666563      -1.47445355 
O      -5.26490018       1.64830049      -2.04486532 
C      -4.32071964       1.01737173      -1.32348022 
C      -4.16186459       1.31678938       0.04051958 
C      -3.18919352       0.59293082       0.72358293 
C      -2.34455922      -0.32553796       0.06567961 
N      -1.72462643      -1.26819711       0.94045631 
N      -0.65434581      -1.87438141       0.59761745 
C       0.60705641      -1.21195629       0.60375634 
C       0.80241619      -0.27221832       1.62800610 
C       2.09948456       0.15019456       1.89145483 
F       2.26575589       1.07399540       2.84306656 
C       3.18378101      -0.38945304       1.20052017 
C       2.99646138      -1.34699204       0.21625124 
C       1.70115551      -1.76560140      -0.11111657 
C       1.67019592      -2.87468236      -1.13218213 
O       2.65081777      -3.26534484      -1.75549745 
O       0.54576183      -3.63783213      -1.09994765 
C      -2.48048143      -0.66397484      -1.32106503 
O      -1.67866248      -1.61989239      -1.82273908 
C      -1.71535796      -2.18600872      -3.10970470 
C      -3.50731160       0.04914243      -1.98339318 
C      -3.81882504      -0.10540544      -3.37783857 
N      -4.18511135      -0.16054504      -4.47476452 
H      -6.72938256       2.19881307      -0.66686095 
H      -6.78168230       2.99149380      -2.26117008 
H      -5.53833555       3.47384101      -1.07866442 
H      -4.77618666       2.04207483       0.56344880 
H      -3.13150333       0.79961170       1.78948479 
H       0.00291723       0.13819338       2.23487599 
H       4.18218355      -0.04812351       1.44635754 
H       3.83397439      -1.78431165      -0.31942917 
H      -0.15774471      -3.23441826      -0.54908932 
H      -2.45563785      -1.80185188      -3.81809410 
H      -2.04268517      -3.22926716      -3.04816828 
H      -0.79024792      -1.98583531      -3.64996139 
36
Properties=species:S:1:pos:R:3 pbc="F F F"
C      -6.02336344       2.64534803      -1.47429810 
O      -5.15644169       1.67727262      -2.04063564 
C      -4.26121681       1.00978574      -1.28658429 
C      -4.15976579       1.24772652       0.09464596 
C      -3.23741393       0.48064403       0.80242757 
C      -2.37489717      -0.43016006       0.16204815 
N      -1.79285903      -1.41729910       1.02005901 
N      -0.69553440      -1.98624760       0.70835574 
C       0.52609844      -1.25685990       0.60905279 
C       0.72343918      -0.24588119       1.56195996 
C       2.00598891       0.26075007       1.73401543 
F       2.17187461       1.24187399       2.62606965 
C       3.08534799      -0.25616458       1.01898457 
C       2.90111433      -1.27643418       0.09891231 
C       1.61744277      -1.79177902      -0.12184763 
C       1.60603880      -2.95191979      -1.08223536 
O       2.57154056      -3.31479049      -1.74648074 
O       0.51186182      -3.75052275      -0.97876473 
C      -2.46899087      -0.72592865      -1.23516559 
O      -1.65986916      -1.68580683      -1.74559727 
C      -1.62524468      -2.14141132      -3.08320037 
C      -3.45313003       0.02587674      -1.93004961 
C      -3.74318999      -0.11400707      -3.33656441 
N      -3.97976490      -0.11978873      -4.46993573 
H      -6.67767974       2.19324362      -0.71444316 
H      -6.64383121       3.05300105      -2.27556477 
H      -5.44873672       3.46384467      -1.01655898 
H      -4.79360490       1.96148397       0.60967068 
H      -3.22902234       0.64237680       1.87743338 
H      -0.06608981       0.15462437       2.18807966 
H       4.07569073       0.14826605       1.19145123 
H       3.73614388      -1.69594116      -0.45497786 
H      -0.19187257      -3.37302595      -0.41192834 
H      -1.75054739      -1.21144434      -3.74872980 
H      -2.41045406      -2.90624963      -3.21666557 
H      -0.71381309      -2.48686881      -3.57034551 
36
Properties=species:S:1:pos:R:3 pbc="F F F"
C      -5.88473950       2.67384233      -1.45820229 
O      -5.00361933       1.72103567      -2.03271512 
C      -4.17612007       0.99598541      -1.25119647 
C      -4.16290095       1.14867308       0.14794137 
C      -3.31312906       0.32540688       0.88518764 
C      -2.42575024      -0.57087869       0.26675917 
N      -1.86521944      -1.58959399       1.10529606 
N      -0.73269453      -2.11004250       0.85083909 
C       0.43559188      -1.31652732       0.63437911 
C       0.61714324      -0.21777132       1.48788181 
C       1.86586356       0.39251599       1.53045194 
F       2.01730271       1.44577162       2.33904139 
C       2.93286102      -0.09649672       0.77685769 
C       2.75878923      -1.19236570      -0.05531737 
C       1.51220628      -1.82708543      -0.13471475 
C       1.50904063      -3.03897022      -1.02861455 
O       2.45356765      -3.36663366      -1.73833464 
O       0.44336793      -3.86515652      -0.87354339 
C      -2.43389353      -0.76447372      -1.14532191 
O      -1.59294964      -1.69447107      -1.65802566 
C      -1.60198206      -2.12895099      -3.00948960 
C      -3.33598109       0.03461934      -1.88610390 
C      -3.47314155      -0.03252127      -3.31630064 
N      -3.60450603       0.01259479      -4.46331687 
H      -6.59839497       2.19732409      -0.76926076 
H      -6.44582567       3.14715107      -2.26746743 
H      -5.32936150       3.45125457      -0.91239618 
H      -4.81747295       1.84430679       0.66184997 
H      -3.36181465       0.42426992       1.96636318 
H      -0.16139214       0.16923608       2.13611823 
H       3.89912983       0.38894304       0.84910830 
H       3.58540639      -1.58929850      -0.63775976 
H      -0.23660367      -3.50578597      -0.26863696 
H      -1.26023040      -1.08735300      -3.49860619 
H      -2.48847033      -2.68238002      -3.36568836 
H      -0.74882874      -2.62858697      -3.50446954 
36
Properties=species:S:1:pos:R:3 pbc="F F F"
C      -5.73099691       2.71910299      -1.42222494 
O      -4.83355867       1.78371950      -1.99964754 
C      -4.08174493       0.99046403      -1.20593765 
C      -4.16524783       1.04439639       0.19801313 
C      -3.38979640       0.15865842       0.94519881 
C      -2.47237527      -0.71632962       0.34229327 
N      -1.92967660      -1.76203680       1.16578519 
N      -0.75569989      -2.21317439       0.99061079 
C       0.34713868      -1.36324996       0.65652836 
C       0.49393482      -0.18795834       1.41156305 
C       1.69338542       0.51282900       1.32016039 
F       1.81614509       1.63355307       2.03844080 
C       2.74746141       0.05184764       0.52836811 
C       2.60107246      -1.11492776      -0.21034077 
C       1.40951687      -1.85262954      -0.14747722 
C       1.42205856      -3.11570614      -0.96918213 
O       2.33684364      -3.41079916      -1.73098973 
O       0.39820321      -3.97804459      -0.74040132 
C      -2.37354223      -0.80620606      -1.08112102 
O      -1.57036422      -1.77801527      -1.58489196 
C      -1.43858091      -2.03129992      -2.98485115 
C      -3.20633506       0.05806487      -1.84006660 
C      -3.22694210       0.10076976      -3.28065803 
N      -3.28705117       0.20138104      -4.43122460 
H      -6.50342393       2.21831867      -0.81920656 
H      -6.22008078       3.25979961      -2.23607066 
H      -5.19894024       3.44268345      -0.78649286 
H      -4.84131763       1.72038420       0.71013000 
H      -3.49388804       0.18800474       2.02659647 
H      -0.27798898       0.18300815       2.07744219 
H       3.67509683       0.61186873       0.49304692 
H       3.41499039      -1.49251548      -0.82320270 
H      -0.26491516      -3.63240608      -0.11066590 
H      -1.05651429      -1.11741616      -3.46876184 
H      -2.36462587      -2.44971790      -3.39931117 
H      -0.69699192      -2.78883396      -3.26885850 
36
Properties=species:S:1:pos:R:3 pbc="F F F"
C      -5.54918147       2.77152532      -1.37218684 
O      -4.63508226       1.85077465      -1.94478762 
C      -3.97533220       0.97942203      -1.15087043 
C      -4.16835366       0.92846206       0.24232984 
C      -3.46921161      -0.02394640       0.98440240 
C      -2.52168003      -0.87251554       0.39175417 
N      -1.98794525      -1.93683815       1.20348913 
N      -0.77247077      -2.28970785       1.12639587 
C       0.26027162      -1.39912776       0.68191071 
C       0.35776951      -0.15203222       1.32437013 
C       1.48834798       0.62912096       1.08924195 
F       1.56887643       1.81533296       1.70059467 
C       2.52357226       0.19526188       0.25486594 
C       2.42080959      -1.04193579      -0.37107534 
C       1.30727372      -1.87108105      -0.15441814 
C       1.34048333      -3.18632838      -0.89233418 
O       2.21620702      -3.45990372      -1.70648867 
O       0.36556098      -4.08143927      -0.58750403 
C      -2.32749870      -0.86080544      -1.02441962 
O      -1.51122813      -1.81978633      -1.52462366 
C      -1.30233274      -2.00697551      -2.91957271 
C      -3.07294207       0.07589962      -1.78857463 
C      -2.97450372       0.21754606      -3.21946357 
N      -2.94900622       0.39146804      -4.36228406 
H      -6.38146863       2.25389278      -0.87202817 
H      -5.95150231       3.38370332      -2.18287589 
H      -5.05028939       3.42793659      -0.64365750 
H      -4.86569244       1.58741497       0.74756607 
H      -3.63184586      -0.06813389       2.05791656 
H      -0.40942681       0.20140814       2.00561868 
H       3.39460421       0.82227761       0.09901714 
H       3.21386027      -1.40510435      -1.01940341 
H      -0.27430156      -3.74435602       0.06881014 
H      -0.83396265      -1.11636074      -3.35651201 
H      -2.23904794      -2.27853568      -3.42227314 
H      -0.62808213      -2.84894578      -3.10033719 
36
Properties=species:S:1:pos:R:3:forces:R:3 energy=-1539.7069234585058 pbc="F F F"
C      -5.35011616       2.82129771      -1.31079262      -0.00076711      -0.00171911       0.00064288 
O      -4.42026714       1.91086109      -1.87040375      -0.00010975      -0.00020380      -0.00004870 
C      -3.86462127       0.96050197      -1.08785083      -0.00031608       0.00049864      -0.00162026 
C      -4.16998143       0.80757267       0.27753336      -0.00046061       0.00096896       0.00116385 
C      -3.54326151      -0.20441771       1.00677355      -0.00049683       0.00166663      -0.00061829 
C      -2.56542444      -1.02472663       0.42702144      -0.00061304      -0.00130121       0.00249615 
N      -2.03305556      -2.10275214       1.22735428       0.00180697       0.00273626      -0.00108044 
N      -0.78729968      -2.33716706       1.25307527      -0.00301153      -0.00262042       0.00040631 
C       0.17799724      -1.42203602       0.70952845       0.00033393      -0.00084987      -0.00037932 
C       0.21965851      -0.11330734       1.22758823       0.00061263       0.00157592      -0.00052650 
C       1.26461216       0.73455476       0.85252446      -0.00146491       0.00016528       0.00238946 
F       1.29369953       1.97691309       1.34645294       0.00236786       0.00176930       0.00139057 
C       2.27575453       0.32409361      -0.02603405       0.00204974      -0.00291733      -0.00268868 
C       2.22663340      -0.97501770      -0.52420963      -0.00088126       0.00131567       0.00040045 
C       1.20663603      -1.87573946      -0.16026359      -0.00067193      -0.00109071      -0.00072814 
C       1.25467160      -3.23589032      -0.81226737       0.00488143      -0.00143892      -0.00370659 
O       2.08959111      -3.50156379      -1.66984091      -0.00054353       0.00226983       0.00479310 
O       0.34123684      -4.16458327      -0.42821885       0.00326717       0.00193047       0.00104145 
C      -2.29129960      -0.92298625      -0.97150656       0.00061298      -0.00011264      -0.00221136 
O      -1.44710868      -1.85685269      -1.46491185      -0.00086164      -0.00061251       0.00214768 
C      -1.17277304      -1.98839075      -2.85499028      -0.00120173      -0.00070577      -0.00141362 
C      -2.94096101       0.08452034      -1.73196293      -0.00084713       0.00055608       0.00103635 
C      -2.72220254       0.31697931      -3.13759274       0.00172999      -0.00071809       0.00414106 
N      -2.59712408       0.57522411      -4.25754949      -0.00212843       0.00008096      -0.00352864 
H      -6.23688820       2.29724427      -0.92402089      -0.00042357       0.00031816      -0.00055150 
H      -5.65705843       3.50325994      -2.10735157       0.00028614      -0.00077509      -0.00008013 
H      -4.89574948       3.40188462      -0.49426615      -0.00177706       0.00097870       0.00012936 
H      -4.88853779       1.45403046       0.76802194       0.00118838      -0.00016370      -0.00029457 
H      -3.77137950      -0.32536486       2.06194924      -0.00070226      -0.00137631      -0.00050096 
H      -0.54298465       0.22439759       1.92231434      -0.00015724      -0.00031015      -0.00013002 
H       3.07326054       1.00493504      -0.30475641      -0.00045488       0.00104494      -0.00138630 
H       2.99030239      -1.33124300      -1.21098755       0.00039243       0.00073762      -0.00123568 
H      -0.26827103      -3.83297975       0.25739348      -0.00007113      -0.00280885      -0.00010244 
H      -0.62976596      -1.11325734      -3.23230077       0.00095081       0.00208614      -0.00018372 
H      -2.09967955      -2.12804405      -3.42482151      -0.00128173       0.00166825       0.00100731 
H      -0.54299484      -2.87436335      -2.96803804      -0.00123706      -0.00264335      -0.00017011 
