36
Properties=species:S:1:pos:R:3:forces:R:3 pbc="F F F" energy=-1486.563959962216
C       4.45347908      -0.64704657      -3.85273705      -0.00269988      -0.00095254      -0.00238485 
C       3.55518744       0.20635913      -3.00012398      -0.00184533       0.00036320      -0.00012019 
C       3.48574834       1.58465644      -3.22359202      -0.00026661      -0.00231475       0.00124475 
C       2.66258961       2.42095241      -2.44501664       0.00040888       0.00163671      -0.00324659 
C       2.66922179       3.89332600      -2.76609557       0.00025964      -0.00148636       0.00312037 
O       3.30203026       4.35415085      -3.70395488       0.00333027       0.00200308       0.00074420 
O       1.93190957       4.70951387      -1.95739384      -0.00148233       0.00124702       0.00006613 
C       1.88787228       1.84431955      -1.43166658      -0.00132670      -0.00433638       0.00190554 
C       1.93287428       0.45534798      -1.19608350      -0.00435378       0.00169978       0.00232253 
N       1.18908540      -0.14650869      -0.13369381      -0.00183940       0.00183450       0.00480586 
N       0.21339775       0.56666490       0.31793371       0.00439900      -0.00135284      -0.00270450 
C      -0.52522461      -0.04935778       1.37843757      -0.00198390       0.00137902       0.00324368 
C      -0.53936224      -1.44624201       1.57569141       0.00078760      -0.00298773      -0.00061518 
C      -1.32973479      -1.97414288       2.59910371       0.00008548       0.00265208      -0.00264332 
F      -1.34741635      -3.30094802       2.78386980       0.00146940      -0.00062546       0.00012665 
C      -2.10338770      -1.16355405       3.43650922      -0.00045194      -0.00285730       0.00134040 
C      -2.08952465       0.22824092       3.23242959       0.00269832       0.00003367      -0.00007472 
C      -2.91447600       1.09029312       4.12648469      -0.00034129       0.00382482       0.00032205 
O      -3.61857867       0.67191537       5.04073681       0.00003448       0.00051324      -0.00259971 
O      -2.84852612       2.42927275       3.87482200      -0.00122875      -0.00074097      -0.00059874 
C      -1.31518354       0.77844717       2.19868282       0.00141891      -0.00024614       0.00018219 
C       2.78055021      -0.37280935      -1.97067370       0.00304198       0.00194342      -0.00413636 
C       2.83399060      -1.85454688      -1.73087514      -0.00021344      -0.00033287       0.00018478 
H       5.20553316      -1.15497787      -3.24721123      -0.00131149      -0.00073138       0.00250628 
H       3.88587960      -1.42259624      -4.36874841      -0.00128732       0.00031522       0.00192661 
H       4.96777004      -0.04854231      -4.59979904       0.00100635       0.00006228      -0.00110319 
H       4.07960727       2.04282153      -4.01110699       0.00027938       0.00010413      -0.00083046 
H       1.48510804       4.23116167      -1.24695584      -0.00126165       0.00247525       0.00075105 
H       1.23798194       2.44904007      -0.79878478      -0.00204939       0.00029885      -0.00105546 
H       0.04865023      -2.09714629       0.93482813      -0.00112378      -0.00006978      -0.00038063 
H      -2.71327137      -1.58688701       4.22937103       0.00261626       0.00015726      -0.00239497 
H      -3.41628032       2.89705589       4.50814527      -0.00044819       0.00093229      -0.00116257 
H      -1.30858924       1.85428505       2.04812542       0.00055933      -0.00152194       0.00083323 
H       3.86127845      -2.19061115      -1.58418968       0.00088747      -0.00093281       0.00059330 
H       2.25008030      -2.13274034      -0.85706360       0.00255902      -0.00108980       0.00079301 
H       2.44189474      -2.40312105      -2.58943354      -0.00032660      -0.00089681      -0.00096116 
36
Properties=species:S:1:pos:R:3 pbc="F F F"
C       4.34170732      -0.66117387      -3.85229555 
C       3.49266225       0.18488933      -2.97205583 
C       3.34927206       1.54606211      -3.18349302 
C       2.56724188       2.37498401      -2.38125950 
C       2.48808655       3.82593284      -2.69081514 
O       3.04615449       4.28684083      -3.68119173 
O       1.78881470       4.64974117      -1.86209539 
C       1.88096877       1.80133051      -1.31605927 
C       2.00627569       0.43040168      -1.10056736 
N       1.38791258      -0.17505168       0.01335813 
N       0.42619493       0.54104434       0.45893536 
C      -0.41321037      -0.03723925       1.42297686 
C      -0.46225725      -1.42925327       1.46785309 
C      -1.36345788      -1.89306982       2.41373772 
F      -1.43076956      -3.22503483       2.47567430 
C      -2.12064172      -1.09873614       3.21601553 
C      -2.06369055       0.29530282       3.15403501 
C      -2.86585603       1.13109866       4.00497715 
O      -3.67310175       0.73657782       4.86189676 
O      -2.73094907       2.48796622       3.86592812 
C      -1.17321540       0.78796784       2.19776384 
C       2.80895282      -0.38971041      -1.89018758 
C       2.93961594      -1.85139448      -1.65888808 
H       5.16608470      -1.13366953      -3.29211840 
H       3.78418053      -1.47768637      -4.32917235 
H       4.79162483      -0.05409223      -4.64622406 
H       3.87874595       2.00785608      -4.01945762 
H       1.40771975       4.16857122      -1.11621317 
H       1.25910284       2.40217030      -0.65541419 
H       0.12135477      -2.08465571       0.83972279 
H      -2.82433993      -1.48961384       3.95460166 
H      -3.32424224       2.92684764       4.49768154 
H      -1.12337920       1.87699967       2.14660322 
H       3.99168110      -2.16758811      -1.57282135 
H       2.43097651      -2.12766461      -0.72842935 
H       2.50594477      -2.45090478      -2.47303081 
36
Properties=species:S:1:pos:R:3 pbc="F F F"
C       4.23518136      -0.67635968      -3.85313177 
C       3.42967305       0.16383690      -2.94519805 
C       3.21646019       1.50872638      -3.14801921 
C       2.47107674       2.32948378      -2.32129995 
C       2.31047923       3.76068126      -2.62165443 
O       2.78880717       4.21825579      -3.66042290 
O       1.64519439       4.58844601      -1.77162560 
C       1.87575915       1.76086887      -1.20640543 
C       2.07664819       0.40709900      -1.01012413 
N       1.59599594      -0.20293235       0.15663992 
N       0.65593761       0.52416671       0.61507040 
C      -0.29679868      -0.02639742       1.46188209 
C      -0.38865747      -1.41336287       1.36676287 
C      -1.40043079      -1.82693214       2.22746041 
F      -1.52483310      -3.15636508       2.16997717 
C      -2.15570311      -1.03946644       3.00973096 
C      -2.03606310       0.35578625       3.07293773 
C      -2.82779338       1.17725459       3.89455851 
O      -3.73408744       0.79918703       4.67544841 
O      -2.60927691       2.54368283       3.86567458 
C      -1.03081348       0.81547775       2.20795175 
C       2.83978080      -0.40637441      -1.81306776 
C       3.04354054      -1.85112950      -1.58564706 
H       5.12500076      -1.10742640      -3.34207604 
H       3.68786923      -1.53070044      -4.28608909 
H       4.61268156      -0.06384888      -4.68901621 
H       3.67582632       1.97086719      -4.02737071 
H       1.33352856       4.10867246      -0.99434815 
H       1.28155947       2.35767587      -0.51924222 
H       0.19545839      -2.07437784       0.74560205 
H      -2.94383282      -1.39786980       3.67492304 
H      -3.23370390       2.95637771       4.48835159 
H      -0.92821538       1.89918781       2.25250761 
H       4.11594889      -2.14021618      -1.56504541 
H       2.61791345      -2.11915850      -0.60457000 
H       2.57205335      -2.49677010      -2.35115362 
36
Properties=species:S:1:pos:R:3 pbc="F F F"
C       4.13353125      -0.69234002      -3.85373574 
C       3.36620380       0.14264362      -2.91832920 
C       3.08715655       1.47142843      -3.11607896 
C       2.37427932       2.28396443      -2.26441377 
C       2.13724714       3.69650068      -2.55901757 
O       2.53230078       4.14726245      -3.63980066 
O       1.50280665       4.52535565      -1.68735735 
C       1.87146046       1.72248727      -1.10424852 
C       2.14149151       0.38548132      -0.92323703 
N       1.80646384      -0.22726667       0.29028498 
N       0.89331595       0.50069308       0.80142970 
C      -0.17647780      -0.02033599       1.49334871 
C      -0.32124147      -1.39345109       1.27527756 
C      -1.43582127      -1.76709669       2.03619788 
F      -1.62290291      -3.08080276       1.86428806 
C      -2.20155739      -0.97517581       2.80952977 
C      -2.00291117       0.40708340       2.98612112 
C      -2.79757099       1.22845119       3.79290838 
O      -3.79422161       0.86588686       4.47886731 
O      -2.48826264       2.58682623       3.87581264 
C      -0.89265362       0.84663590       2.23594868 
C       2.87238712      -0.42177659      -1.74083195 
C       3.14574160      -1.85078965      -1.51272169 
H       5.08023050      -1.07796496      -3.39500928 
H       3.59795040      -1.58111983      -4.23905052 
H       4.43340223      -0.07911921      -4.72572744 
H       3.47294287       1.93058960      -4.03294038 
H       1.26224564       4.05093531      -0.88321338 
H       1.30419293       2.31492339      -0.39209687 
H       0.26861540      -2.06071195       0.65757942 
H      -3.06291867      -1.30270605       3.38669061 
H      -3.14531291       2.98203529       4.47992904 
H      -0.73074440       1.90932142       2.37059716 
H       4.23188113      -2.10814933      -1.56151511 
H       2.80706252      -2.10540114      -0.48925437 
H       2.64185202      -2.53825157      -2.22625989 
36
Properties=species:S:1:pos:R:3 pbc="F F F"
C       4.03534328      -0.70903628      -3.85246474 
C       3.30208295       0.12065593      -2.88992647 
C       2.96030034       1.43274625      -3.08542516 
C       2.27680451       2.23742118      -2.20851880 
C       1.96781770       3.63160875      -2.50126201 
O       2.27713870       4.07237739      -3.61663608 
O       1.36230346       4.45959485      -1.60836093 
C       1.86730635       1.68458459      -1.00787943 
C       2.20027309       0.36526644      -0.83641488 
N       2.00903805      -0.24209358       0.41146998 
N       1.12631389       0.45498682       1.01473588 
C      -0.05756069      -0.01940342       1.52164202 
C      -0.25921285      -1.36688605       1.19264950 
C      -1.46460802      -1.70047243       1.83997437 
F      -1.71442053      -2.98488677       1.55661521 
C      -2.24455500      -0.89941939       2.60671944 
C      -1.96497919       0.45276230       2.89550442 
C      -2.76865590       1.28074599       3.69421963 
O      -3.84515263       0.94271169       4.27190046 
O      -2.37272656       2.61149363       3.89442028 
C      -0.76147918       0.86498207       2.27830706 
C       2.90578425      -0.43504777      -1.67308553 
C       3.24671705      -1.84769445      -1.44130915 
H       5.02970560      -1.04705290      -3.44917414 
H       3.51411730      -1.62887282      -4.18756811 
H       4.25456038      -0.10083080      -4.75466119 
H       3.27053423       1.88569941      -4.03402552 
H       1.19337110       3.99399464      -0.78189133 
H       1.32666843       2.27166816      -0.27226895 
H       0.33877905      -2.03946637       0.57912913 
H      -3.16965009      -1.19355088       3.08746851 
H      -3.05933206       3.00111136       4.47171209 
H      -0.54143609       1.89638234       2.50161573 
H       4.33846853      -2.07141842      -1.56258199 
H       2.99589775      -2.08500252      -0.38467783 
H       2.71660757      -2.57361275      -2.09998009 
36
Properties=species:S:1:pos:R:3 pbc="F F F"
C       3.93856765      -0.72646895      -3.84809268 
C       3.23694095       0.09723557      -2.85831232 
C       2.83431531       1.39139518      -3.05342569 
C       2.17853303       2.18878865      -2.15082413 
C       1.80056691       3.56420241      -2.44533275 
O       2.02199690       3.99212246      -3.58747342 
O       1.22345092       4.38994459      -1.53162618 
C       1.86402102       1.64607375      -0.91479001 
C       2.25549210       0.34571545      -0.74615475 
N       2.19401804      -0.24089302       0.52369049 
N       1.33886575       0.37389322       1.23713156 
C       0.05627955      -0.02319709       1.55117098 
C      -0.20085077      -1.33265706       1.11699410 
C      -1.48104579      -1.61725635       1.64078427 
F      -1.78886982      -2.85959411       1.24719343 
C      -2.27167291      -0.80891602       2.39714657 
C      -1.92324400       0.49737257       2.80312321 
C      -2.73520935       1.33088735       3.59317177 
O      -3.87888259       1.03372112       4.05606625 
O      -2.26634259       2.61547676       3.91672729 
C      -0.64082963       0.86037799       2.32637325 
C       2.93944378      -0.44592951      -1.60825471 
C       3.34734632      -1.84018350      -1.37182851 
H       4.97129225      -1.01608326      -3.50354697 
H       3.43495408      -1.67402663      -4.13116894 
H       4.07518464      -0.12947089      -4.77475326 
H       3.06743578       1.83508837      -4.02835254 
H       1.12643002       3.93629003      -0.68723498 
H       1.35047841       2.22730513      -0.15707410 
H       0.40431908      -2.00883174       0.51065128 
H      -3.25197838      -1.06276878       2.77767532 
H      -2.97528353       3.01236063       4.46238752 
H      -0.37031184       1.85356459       2.64043567 
H       4.43562983      -2.03042311      -1.56821794 
H       3.18387520      -2.05716444      -0.29154890 
H       2.79724846      -2.60190518      -1.97273878 
36
Properties=species:S:1:pos:R:3 pbc="F F F"
C       3.84129385      -0.74456312      -3.84014431 
C       3.17053336       0.07198406      -2.82199086 
C       2.70783336       1.34663520      -3.01792588 
C       2.07951674       2.13743942      -2.08872539 
C       1.63372309       3.49315865      -2.38785743 
O       1.76514172       3.90564815      -3.54858938 
O       1.08586746       4.31537387      -1.45313773 
C       1.86292438       1.60699102      -0.82378454 
C       2.31116721       0.32594035      -0.65069013 
N       2.35607634      -0.22290131       0.63532859 
N       1.51785421       0.25597958       1.44600555 
C       0.16441797      -0.03265444       1.58423793 
C      -0.14534846      -1.29059438       1.04664175 
C      -1.48081758      -1.51493727       1.44137203 
F      -1.83977948      -2.70297440       0.93903086 
C      -2.27556368      -0.70370823       2.18212552 
C      -1.87713453       0.54286339       2.70902007 
C      -2.69422154       1.37811863       3.48685143 
O      -3.88956677       1.13940118       3.83454318 
O      -2.17118724       2.59993139       3.93629429 
C      -0.53423895       0.83208906       2.37014264 
C       2.97353940      -0.45495735      -1.54495975 
C       3.44854845      -1.82795151      -1.30410122 
H       4.90308696      -0.98597978      -3.55755535 
H       3.35867982      -1.71635385      -4.06969405 
H       3.89380378      -0.16493097      -4.78528819 
H       2.86212788       1.77827696      -4.01372062 
H       1.06110055       3.87669424      -0.59529985 
H       1.37722731       2.18339119      -0.04521330 
H       0.46381168      -1.96843243       0.45006205 
H      -3.30201225      -0.90910781       2.46132830 
H      -2.89198050       3.01591723       4.45017754 
H      -0.22364840       1.78120979       2.77749261 
H       4.52361851      -1.98602944      -1.57783833 
H       3.37155197      -2.02216077      -0.20980953 
H       2.88421818      -2.62276015      -1.84435715 
36
Properties=species:S:1:pos:R:3 pbc="F F F"
C       3.74228622      -0.76307003      -3.82903748 
C       3.10293369       0.04489627      -2.77997508 
C       2.57998415       1.29848463      -2.97779109 
C       1.97987592       2.08318764      -2.02013074 
C       1.46581504       3.41821983      -2.32611334 
O       1.50548933       3.81301933      -3.49690218 
O       0.94931203       4.23527327      -1.36910680 
C       1.86429784       1.56740228      -0.73397568 
C       2.37013543       0.30556775      -0.55001609 
N       2.49738776      -0.19628379       0.75313309 
N       1.66164951       0.11804794       1.62428618 
C       0.26846648      -0.04986998       1.61959763 
C      -0.09333455      -1.24087190       0.98008035 
C      -1.46341871      -1.39859421       1.24323989 
F      -1.86753089      -2.52041722       0.63596697 
C      -2.25744978      -0.58667418       1.96629533 
C      -1.82471413       0.58767196       2.61095883 
C      -2.64610709       1.42433983       3.37535452 
O      -3.87535592       1.25632203       3.61121063 
O      -2.08730764       2.56898631       3.94668613 
C      -0.44307626       0.78813093       2.40256329 
C       3.00851611      -0.46316548      -1.48276473 
C       3.55113814      -1.81202418      -1.23757833 
H       4.82387737      -0.95719366      -3.61071411 
H       3.28378019      -1.75520718      -4.00356017 
H       3.70959454      -0.20643716      -4.78587881 
H       2.65371649       1.71560650      -3.98843010 
H       0.99699960       3.81445966      -0.50258636 
H       1.40709716       2.14049379       0.06449277 
H       0.51667203      -1.91864015       0.39397460 
H      -3.31958821      -0.73810109       2.14392912 
H      -2.80777096       3.01306128       4.43336547 
H      -0.10101751       1.68690715       2.90300339 
H       4.60283230      -1.93951698      -1.59001709 
H       3.55958643      -1.98167701      -0.13900609 
H       2.97739267      -2.63628800      -1.71458258 
36
Properties=species:S:1:pos:R:3 pbc="F F F"
C       3.64114843      -0.78166847      -3.81612125 
C       3.03451638       0.01634948      -2.73204365 
C       2.45034311       1.24768245      -2.93322510 
C       1.87977728       2.02615494      -1.94381342 
C       1.29576172       3.33990872      -2.25879344 
O       1.24303280       3.71513492      -3.43100542 
O       0.81366889       4.14951807      -1.27700747 
C       1.86724993       1.52692653      -0.64404253 
C       2.43287203       0.28468840      -0.44530937 
N       2.62743127      -0.17206326       0.87656547 
N       1.77956776      -0.01568928       1.76994997 
C       0.37317546      -0.07627317       1.65246151 
C      -0.04634723      -1.18366928       0.91554718 
C      -1.43243280      -1.27843839       1.04442866 
F      -1.87943586      -2.32221653       0.33976403 
C      -2.22756649      -0.46164206       1.75444964 
C      -1.76329294       0.62775095       2.50515603 
C      -2.59491408       1.47365959       3.26181357 
O      -3.83907946       1.37835882       3.38920677 
O      -2.01253506       2.52886534       3.94343306 
C      -0.36546872       0.74233510       2.42347030 
C       3.04445028      -0.47164739      -1.42183942 
C       3.65578685      -1.79438677      -1.17136688 
H       4.73343873      -0.92976830      -3.66250250 
H       3.20928243      -1.78969336      -3.93391921 
H       3.52295550      -0.25269457      -4.77668003 
H       2.44236130       1.64813298      -3.95183298 
H       0.93341745       3.74913471      -0.40691312 
H       1.43911824       2.09725100       0.17399602 
H       0.56408971      -1.86100492       0.33851394 
H      -3.31238790      -0.55937462       1.82911043 
H      -2.72096544       3.00596878       4.41111670 
H       0.00524029       1.58205418       3.01119717 
H       4.67388396      -1.89234164      -1.60229483 
H       3.74792127      -1.93826327      -0.07819901 
H       3.07609972      -2.64299348      -1.58329948 
36
Properties=species:S:1:pos:R:3 pbc="F F F"
C       3.53828294      -0.80009886      -3.80356005 
C       2.96591340      -0.01294917      -2.67902191 
C       2.31889859       1.19555555      -2.88584286 
C       1.77965921       1.96682454      -1.86004737 
C       1.12309018       3.25947600      -2.18637006 
O       0.97920759       3.61365932      -3.35189842 
O       0.67916825       4.05868235      -1.17620372 
C       1.87025849       1.48507092      -0.55286628 
C       2.49805864       0.26314344      -0.33787544 
N       2.75741236      -0.15581432       0.99990275 
N       1.88774663      -0.12977980       1.89482768 
C       0.48500133      -0.11092766       1.67811650 
C      -0.00513903      -1.11993907       0.85071073 
C      -1.39425576      -1.16514026       0.84006858 
F      -1.88672621      -2.12012346       0.04873294 
C      -2.20181252      -0.33210470       1.54838814 
C      -1.69171121       0.65985035       2.38924150 
C      -2.54704551       1.53041248       3.15070228 
O      -3.78758535       1.49869123       3.17037320 
O      -1.94274378       2.48676540       3.92570034 
C      -0.29604425       0.70902837       2.43977552 
C       3.08072635      -0.48119440      -1.36221523 
C       3.76292533      -1.77744111      -1.10442631 
H       4.63267080      -0.90354104      -3.71238858 
H       3.13474928      -1.81893150      -3.86277649 
H       3.33575473      -0.30203192      -4.75866553 
H       2.22956952       1.57749502      -3.90476389 
H       0.86931343       3.68082291      -0.30790634 
H       1.47166429       2.05183253       0.28493733 
H       0.60932267      -1.79896723       0.27975383 
H      -3.29239702      -0.38278820       1.51751373 
H      -2.63054121       2.99731877       4.38419011 
H       0.10682829       1.47733712       3.10198058 
H       4.73772651      -1.84594200      -1.61137407 
H       3.93514941      -1.89454779      -0.02590420 
H       3.17906843      -2.64365763      -1.45083761 
36
Properties=species:S:1:pos:R:3:forces:R:3 pbc="F F F" energy=-1486.4856831259026
C       3.43463561      -0.81823723      -3.79386287      -0.00297574       0.00272782       0.00104723 
C       2.89785075      -0.04204901      -2.62298016       0.00180781       0.00199673       0.00164007 
C       2.18593697       1.14376739      -2.83826651      -0.00320082      -0.00187078       0.00358728 
C       1.68025841       1.90610905      -1.77095485      -0.00191430       0.00055737       0.00359236 
C       0.94809696       3.17863962      -2.11073615       0.00322654       0.00193012      -0.00055875 
O       0.71674064       3.51085736      -3.26307789       0.00086344      -0.00159973       0.00342235 
O       0.54655359       3.96415928      -1.06793682       0.00347892       0.00171492      -0.00223663 
C       1.87174084       1.44154341      -0.45988236       0.00145525       0.00077690      -0.00072097 
C       2.56374124       0.24055959      -0.22889847       0.00173535       0.00238105      -0.00337126 
N       2.89349436      -0.14719201       1.11988400       0.00180008       0.00229650       0.00210371 
N       2.00684435      -0.22234672       2.01428807      -0.00334239      -0.00160149      -0.00212752 
C       0.60453377      -0.14820664       1.69676014       0.00373586       0.00095456       0.00427115 
C       0.03269873      -1.05326897       0.78213430      -0.00207246      -0.00189436      -0.00361472 
C      -1.35771536      -1.06350654       0.62702263       0.00178389      -0.00408490      -0.00027902 
F      -1.90012088      -1.92455699      -0.24163418       0.00044437      -0.00275906      -0.00143361 
C      -2.19418428      -0.20286062       1.34365962      -0.00370439       0.00285910       0.00070491 
C      -1.61487485       0.68660040       2.26664392      -0.00408407       0.00340388       0.00169367 
C      -2.50713942       1.59503579       3.04367649       0.00135490      -0.00424361      -0.00008350 
O      -3.73057474       1.61189589       2.95545485      -0.00107397      -0.00017686       0.00182648 
O      -1.87229555       2.44975801       3.89738931       0.00206260      -0.00041523       0.00062539 
C      -0.22388055       0.69517605       2.46013115      -0.00212892      -0.00172231      -0.00062522 
C       3.11627103      -0.49213551      -1.30346924       0.00340680       0.00079031      -0.00425127 
C       3.87270464      -1.76338006      -1.03603407      -0.00158839       0.00416989       0.00123454 
H       4.52356780      -0.87836637      -3.75991695      -0.00122982      -0.00205117      -0.00002715 
H       3.06006359      -1.84239575      -3.79279330      -0.00176172       0.00022306      -0.00071461 
H       3.15099772      -0.35253416      -4.73378859       0.00206447      -0.00202083      -0.00067611 
H       2.01802388       1.50572549      -3.84960711       0.00055348       0.00141366      -0.00282632 
H       0.80351859       3.61033096      -0.20685799       0.00322004      -0.00241983       0.00016640 
H       1.50292192       2.00309695       0.39777760      -0.00031055       0.00211503       0.00103470 
H       0.65655741      -1.73711912       0.21471748       0.00010279      -0.00349345      -0.00026927 
H      -3.27147234      -0.21522527       1.20844263      -0.00002000      -0.00230285       0.00023755 
H      -2.53674969       2.98970522       4.35490801      -0.00018559       0.00168963      -0.00212183 
H       0.21431439       1.38008976       3.18001074      -0.00164638       0.00018017       0.00158639 
H       4.79591371      -1.80155079      -1.61389918       0.00133472      -0.00074996       0.00191164 
H       4.11869270      -1.85278425       0.01986845      -0.00223263       0.00013169      -0.00354150 
H       3.28449884      -2.63928802      -1.31820135      -0.00095916       0.00109402      -0.00120657 
