43
Properties=species:S:1:pos:R:3:forces:R:3 energy=-1630.774141393765 pbc="F F F"
C      -2.51147857      -2.78705864      -0.19653444      -0.00363168       0.00184232       0.00399922 
C      -2.29277258      -2.26392251       1.19507979      -0.00149849      -0.00312314      -0.00193741 
C      -2.72982744      -2.98785440       2.30732505       0.00132011      -0.00022630       0.00146029 
C      -2.51010893      -2.52128802       3.61557046       0.00084838       0.00240583      -0.00092645 
C      -3.00326431      -3.32615877       4.76031386      -0.00308209      -0.00305650       0.00150627 
O      -3.59589816      -4.39934559       4.66220969       0.00051922       0.00182926      -0.00135950 
O      -2.75970447      -2.80236562       5.99955042      -0.00142308      -0.00205384       0.00179118 
C      -1.83566166      -1.30064677       3.81133098       0.00044935       0.00006936       0.00383904 
C      -1.38563445      -0.57171927       2.71814822      -0.00098008      -0.00300691       0.00092764 
C      -1.59620406      -1.04714140       1.40654620      -0.00018176       0.00306193      -0.00040689 
N      -1.20945646      -0.28529630       0.26580160       0.00198904       0.00388278      -0.00181215 
N      -0.23274697       0.53383198       0.46463022      -0.00130991      -0.00169636      -0.00185335 
C       0.13685539       1.30163159      -0.68683969      -0.00038400      -0.00165351       0.00027282 
C      -0.18398872       0.90101342      -1.99701492      -0.00097511      -0.00398756      -0.00128945 
C       0.25226842       1.65549705      -3.09511131       0.00127500      -0.00024965       0.00001109 
C      -0.12947648       1.16135010      -4.46878339       0.00002025       0.00202003      -0.00148419 
O      -0.66907586       0.07989334      -4.64532330       0.00080341      -0.00053543       0.00025752 
O       0.14644934       1.98029428      -5.52572999      -0.00223496       0.00086644       0.00178968 
C       1.02498654       2.80981806      -2.87224740       0.00002347      -0.00175633       0.00156151 
C       1.36668755       3.22270419      -1.57099006       0.00002014      -0.00176370      -0.00023202 
C       2.19508390       4.43851639      -1.35331405       0.00118640       0.00003668      -0.00045979 
C       3.18176334       4.81552587      -2.28243875       0.00147364       0.00110357      -0.00045575 
C       3.96185162       5.95159298      -2.07257123      -0.00145780      -0.00317004      -0.00026127 
C       3.76771981       6.73766015      -0.93532658      -0.00149296      -0.00003073       0.00038153 
C       2.78981452       6.37743493      -0.00629203      -0.00022372      -0.00280138      -0.00283300 
C       2.01357005       5.23755321      -0.20986006      -0.00058627       0.00193933       0.00164372 
C       0.91753404       2.45283661      -0.48544497       0.00156621       0.00043224       0.00026803 
H      -3.29958663      -3.53606329      -0.21553470       0.00142760      -0.00016350      -0.00027139 
H      -2.77357393      -1.98205697      -0.88147481       0.00074457      -0.00000118      -0.00151044 
H      -1.60334011      -3.25229755      -0.58464744       0.00188780      -0.00181595      -0.00099206 
H      -3.25994803      -3.92831889       2.17546500      -0.00077110       0.00116876       0.00028205 
H      -3.11995142      -3.40620961       6.66855714       0.00020621       0.00139093      -0.00080992 
H      -1.67445588      -0.93456955       4.82184891      -0.00010066      -0.00119279      -0.00017740 
H      -0.87677880       0.37894147       2.85899980       0.00100836       0.00102567      -0.00043250 
H      -0.76230452      -0.00291838      -2.17339367       0.00105436       0.00203794       0.00206347 
H       0.54159374       2.82040303      -5.25891250      -0.00042593      -0.00041046      -0.00104272 
H       1.37319799       3.40379755      -3.71751579      -0.00061841       0.00093838      -0.00210225 
H       3.35665786       4.20274675      -3.16428322       0.00042662       0.00261539      -0.00049837 
H       4.72535475       6.22214221      -2.79780218       0.00243663       0.00184240      -0.00025960 
H       4.37566384       7.62408491      -0.77362379      -0.00142202       0.00244006       0.00037117 
H       2.63046034       6.98706523       0.87979570      -0.00023356      -0.00056112       0.00163635 
H       1.24670894       4.97537257       0.51580182       0.00070325       0.00064224      -0.00040448 
H       1.17634998       2.74340733       0.53035747       0.00164358      -0.00033518      -0.00025023 
43
Properties=species:S:1:pos:R:3 pbc="F F F"
C      -2.69403770      -2.66358342      -0.19645695 
C      -2.35555517      -2.14230300       1.14908667 
C      -2.69523793      -2.93860128       2.22951245 
C      -2.36441768      -2.46191633       3.48872374 
C      -2.75560926      -3.33887617       4.59077447 
O      -3.32063622      -4.41771045       4.49570101 
O      -2.40537705      -2.80208314       5.80142790 
C      -1.72582973      -1.25541594       3.69406735 
C      -1.37401779      -0.45806242       2.62521425 
C      -1.69387556      -0.94636353       1.35993245 
N      -1.44294214      -0.13038748       0.24504927 
N      -0.48188428       0.69385689       0.44362551 
C      -0.00992596       1.38418915      -0.67803119 
C      -0.28131026       0.86956609      -1.93542463 
C       0.26926910       1.57318669      -2.99466712 
C      -0.06029468       0.96508437      -4.30999354 
O      -0.62570957      -0.09009489      -4.49502122 
O       0.33805525       1.73393667      -5.37081061 
C       1.03970443       2.69733799      -2.77759028 
C       1.32346832       3.21564435      -1.51896319 
C       2.13960224       4.38796310      -1.31004631 
C       3.20140156       4.72507284      -2.15104510 
C       3.97676136       5.83105935      -1.94770583 
C       3.76454516       6.71001368      -0.89513183 
C       2.70757555       6.38415503      -0.05531123 
C       1.93647549       5.27411597      -0.25184789 
C       0.76034643       2.49647544      -0.46670144 
H      -3.46044489      -3.44010599      -0.19166826 
H      -3.01885778      -1.82276039      -0.82543896 
H      -1.79345283      -3.09960497      -0.67007821 
H      -3.20455415      -3.88652428       2.09742927 
H      -2.70474185      -3.45596768       6.45478556 
H      -1.48071786      -0.88671091       4.69075588 
H      -0.88612565       0.49652943       2.77755729 
H      -0.86787844      -0.02205399      -2.11118418 
H       0.74333392       2.56613382      -5.09728601 
H       1.47991091       3.26112024      -3.60976974 
H       3.40580603       4.03973827      -2.97671129 
H       4.80817507       6.06857159      -2.61540730 
H       4.37756643       7.58567572      -0.73689352 
H       2.52322507       7.06710511       0.77647454 
H       1.10089532       5.05056316       0.41612280 
H       0.97265032       2.86191496       0.53926745 
43
Properties=species:S:1:pos:R:3 pbc="F F F"
C      -2.87488261      -2.54047082      -0.20173033 
C      -2.42076945      -2.02538438       1.10242447 
C      -2.65832312      -2.89061586       2.15191385 
C      -2.22172753      -2.40668700       3.36420951 
C      -2.50824992      -3.35336404       4.42852750 
O      -3.04732733      -4.43892610       4.33497345 
O      -2.05493456      -2.81012270       5.60983106 
C      -1.61146881      -1.21003183       3.58187555 
C      -1.36449713      -0.34886834       2.53633530 
C      -1.78730485      -0.84616913       1.31359192 
N      -1.68585471       0.02490624       0.22741322 
N      -0.74520261       0.86549201       0.42285107 
C      -0.15417659       1.46384568      -0.66961578 
C      -0.37881700       0.84138680      -1.87414923 
C       0.28543887       1.48929586      -2.89521320 
C       0.00743155       0.77720234      -4.15937576 
O      -0.58389850      -0.25625137      -4.35019420 
O       0.53514196       1.48399151      -5.22118934 
C       1.05941953       2.59147542      -2.68832761 
C       1.27964684       3.20611687      -1.46749552 
C       2.08767003       4.34279605      -1.26688396 
C       3.22331534       4.62800452      -2.02465338 
C       3.99993451       5.71413044      -1.82562632 
C       3.76085135       6.67991829      -0.85581042 
C       2.62572551       6.39942311      -0.10095519 
C       1.85299029       5.30907989      -0.29163297 
C       0.60517410       2.54896951      -0.44206794 
H      -3.61820886      -3.34358657      -0.16820627 
H      -3.26395276      -1.66863880      -0.76277231 
H      -1.99154519      -2.94401884      -0.75891939 
H      -3.14805732      -3.84699116       2.02126330 
H      -2.28823896      -3.50753335       6.24363376 
H      -1.28475142      -0.84503488       4.55897816 
H      -0.89430116       0.61024999       2.69987907 
H      -0.97533581      -0.03971559      -2.04784103 
H       0.95064582       2.31197130      -4.94746739 
H       1.58853229       3.11510599      -3.50120901 
H       3.45841192       3.87688283      -2.78407624 
H       4.89201753       5.91059407      -2.42864039 
H       4.38076509       7.54777833      -0.70047588 
H       2.41407699       7.14844127       0.66727333 
H       0.95608550       5.13150267       0.31024473 
H       0.76388470       2.98373345       0.54563184 
43
Properties=species:S:1:pos:R:3 pbc="F F F"
C      -3.05277230      -2.41769364      -0.20529382 
C      -2.48866172      -1.91562098       1.05783440 
C      -2.61858084      -2.84127141       2.07406859 
C      -2.08347654      -2.35731334       3.24171596 
C      -2.26103254      -3.36605513       4.26933053 
O      -2.77621050      -4.45988252       4.17669165 
O      -1.70981812      -2.82495976       5.41843971 
C      -1.49373145      -1.16427486       3.46970489 
C      -1.35724096      -0.24733243       2.45112153 
C      -1.87552517      -0.74469383       1.26800578 
N      -1.93218367       0.17595476       0.22139628 
N      -1.02188997       1.05067566       0.39136311 
C      -0.29665406       1.53623291      -0.66058756 
C      -0.47362810       0.81993541      -1.81437097 
C       0.29852550       1.40407466      -2.79658007 
C       0.07520250       0.60103483      -4.01451279 
O      -0.54256470      -0.41486343      -4.20841259 
O       0.73399026       1.23014335      -5.06554276 
C       1.08257885       2.49128138      -2.59995159 
C       1.23344138       3.19177328      -1.41755514 
C       2.04081220       4.30433390      -1.22403094 
C       3.24345336       4.52667135      -1.89753005 
C       4.02681765       5.60184128      -1.70137253 
C       3.75452812       6.64515599      -0.81780295 
C       2.54811412       6.42063708      -0.14912462 
C       1.76755785       5.34146552      -0.33507799 
C       0.45343222       2.61026922      -0.42023469 
H      -3.77023716      -3.24662294      -0.14150267 
H      -3.50363116      -1.52263154      -0.69048250 
H      -2.19863973      -2.78590993      -0.84510487 
H      -3.08972277      -3.80708851       1.94583293 
H      -1.87384232      -3.55899286       6.02972481 
H      -1.08898164      -0.80945065       4.42238096 
H      -0.90164208       0.71710901       2.62322690 
H      -1.08223599      -0.05206993      -1.98543238 
H       1.16236264       2.05539611      -4.79753551 
H       1.69485292       2.96527573      -3.38863761 
H       3.50921622       3.71778807      -2.58312678 
H       4.97104940       5.75103158      -2.23435083 
H       4.38301418       7.50778770      -0.66498011 
H       2.30781392       7.22754264       0.54836950 
H       0.81827123       5.21493030       0.19441299 
H       0.55320250       3.10826963       0.54183585 
43
Properties=species:S:1:pos:R:3 pbc="F F F"
C      -3.22573204      -2.29556503      -0.20122423 
C      -2.55812391      -1.81252253       1.01797232 
C      -2.57616779      -2.78840294       1.99575334 
C      -1.94952246      -2.31302325       3.11951058 
C      -2.01423045      -3.37370813       4.10779039 
O      -2.50694619      -4.47672821       4.01581452 
O      -1.37079327      -2.84316101       5.21988545 
C      -1.37523623      -1.11814158       3.35275339 
C      -1.35225583      -0.15372247       2.36731572 
C      -1.95990393      -0.64142465       1.22413109 
N      -2.17156034       0.32030983       0.23308959 
N      -1.30395322       1.24168924       0.34167490 
C      -0.43848234       1.60134349      -0.65118958 
C      -0.56373142       0.80658775      -1.75718656 
C       0.30769191       1.31881545      -2.69788744 
C       0.14326338       0.43637337      -3.87036806 
O      -0.50052415      -0.56385490      -4.06575070 
O       0.92954499       0.97390948      -4.89310811 
C       1.10567269       2.39459074      -2.50864906 
C       1.18482475       3.17289413      -1.36957730 
C       1.99794356       4.27053901      -1.18170247 
C       3.25826468       4.42531563      -1.76522001 
C       4.05123186       5.49395377      -1.57169699 
C       3.74444888       6.60507497      -0.78107209 
C       2.47715196       6.44267873      -0.20382053 
C       1.68560391       5.37065524      -0.38572634 
C       0.30546550       2.67588630      -0.40868008 
H      -3.91419079      -3.14899385      -0.10833775 
H      -3.73363607      -1.38655557      -0.60634648 
H      -2.41530474      -2.62471879      -0.92296141 
H      -3.02931259      -3.76369400       1.86963948 
H      -1.46376998      -3.60753384       5.80614100 
H      -0.89589215      -0.77830517       4.27636262 
H      -0.90982549       0.81629628       2.54353413 
H      -1.18552536      -0.05651450      -1.92619161 
H       1.37381501       1.79512999      -4.63312284 
H       1.79497652       2.81148022      -3.26780281 
H       3.55232042       3.56578812      -2.37139433 
H       5.03936556       5.59300205      -2.03002216 
H       4.38206842       7.46330769      -0.63072325 
H       2.20911929       7.30048934       0.41723652 
H       0.69278494       5.29657822       0.06633844 
H       0.34439601       3.23376505       0.52114077 
43
Properties=species:S:1:pos:R:3 pbc="F F F"
C      -3.39172877      -2.17407976      -0.18658659 
C      -2.62761395      -1.71438374       0.98430077 
C      -2.53144358      -2.73015286       1.91654275 
C      -1.81894744      -2.27187199       2.99532379 
C      -1.76803425      -3.37353624       3.93920760 
O      -2.23888052      -4.48588705       3.84764910 
O      -1.03813156      -2.86087066       5.00798478 
C      -1.25872502      -1.07107889       3.22764151 
C      -1.35014237      -0.06701666       2.28329296 
C      -2.04291744      -0.53647631       1.18299743 
N      -2.39351629       0.45905446       0.26466872 
N      -1.57840908       1.42443367       0.26992551 
C      -0.58121173       1.66190435      -0.64344866 
C      -0.64772606       0.80089403      -1.70351778 
C       0.31317701       1.23413937      -2.59779291 
C       0.21147794       0.28116415      -3.72191694 
O      -0.45679718      -0.70324425      -3.91806171 
O       1.11642597       0.71764719      -4.69636100 
C       1.12539067       2.29948529      -2.41178270 
C       1.13425323       3.15038601      -1.32333669 
C       1.95704884       4.23853601      -1.13978816 
C       3.26483289       4.32766694      -1.62548289 
C       4.06786801       5.39014468      -1.43525951 
C       3.72985154       6.55949157      -0.74532967 
C       2.41410777       6.46057632      -0.26643380 
C       1.61124531       5.39553069      -0.44451156 
C       0.16188110       2.74028858      -0.41150120 
H      -4.04843523      -3.04994439      -0.06722185 
H      -3.95134544      -1.26090829      -0.50977284 
H      -2.64128714      -2.45902862      -0.98825885 
H      -2.96702155      -3.71391559       1.79138097 
H      -1.05895012      -3.65006195       5.56682759 
H      -0.70776165      -0.74909174       4.11723308 
H      -0.92134607       0.90857728       2.45915479 
H      -1.28214267      -0.05288924      -1.87171073 
H       1.57785702       1.53220980      -4.44332345 
H       1.88566219       2.65378835      -3.13500372 
H       3.58281211       3.42350182      -2.14800631 
H       5.09216997       5.43909974      -1.81461917 
H       4.37615152       7.41261630      -0.59770607 
H       2.12133055       7.36356151       0.27334719 
H       0.58323886       5.37227618      -0.07402913 
H       0.14106612       3.35734758       0.47960736 
43
Properties=species:S:1:pos:R:3 pbc="F F F"
C      -3.54947448      -2.05253383      -0.16194348 
C      -2.69597673      -1.62000551       0.95639499 
C      -2.48486587      -2.66483802       1.83579909 
C      -1.69075392      -2.23223612       2.86738392 
C      -1.52236048      -3.36337884       3.76112187 
O      -1.97130974      -4.48497225       3.66977330 
O      -0.71186971      -2.87527409       4.77979556 
C      -1.14614788      -1.02177572       3.09307400 
C      -1.35116369       0.01336025       2.19898620 
C      -2.12654067      -0.42956013       1.14520467 
N      -2.59165015       0.59555093       0.31246126 
N      -1.83492973       1.58659297       0.17792297 
C      -0.72619447       1.72042030      -0.64029335 
C      -0.72451206       0.80119569      -1.65349490 
C       0.31565714       1.14918297      -2.49507785 
C       0.28049668       0.13287443      -3.56608059 
O      -0.41077574      -0.83467012      -3.76223500 
O       1.29010621       0.46388094      -4.47307873 
C       1.14008885       2.20503866      -2.30827455 
C       1.08154567       3.12429717      -1.27826053 
C       1.91684226       4.20670458      -1.09778377 
C       3.26121179       4.23553561      -1.47856665 
C       4.07398682       5.29058953      -1.29255029 
C       3.70998533       6.50806936      -0.71029874 
C       2.35937784       6.47127359      -0.33585000 
C       1.54599284       5.41443219      -0.51012241 
C       0.02413992       2.79959916      -0.42843263 
H      -4.17238930      -2.94822536      -0.01899822 
H      -4.15581678      -1.14503425      -0.40246490 
H      -2.87483902      -2.28756773      -1.03856636 
H      -2.90330756      -3.65568902       1.71040418 
H      -0.65952605      -3.68399860       5.30884505 
H      -0.52648747      -0.71935776       3.94340870 
H      -0.93740140       0.99486789       2.37156914 
H      -1.36986891      -0.04334141      -1.82195622 
H       1.76776882       1.26970139      -4.22501265 
H       1.96467883       2.49242296      -2.98873433 
H       3.59805676       3.29251488      -1.91428074 
H       5.12674932       5.29095103      -1.58925204 
H       4.36415820       7.35478926      -0.56575307 
H       2.04573418       7.41389690       0.11849226 
H       0.49093852       5.43890577      -0.22426234 
H      -0.05402062       3.47569400       0.41730922 
43
Properties=species:S:1:pos:R:3 pbc="F F F"
C      -3.69934767      -1.92945002      -0.13083247 
C      -2.76291823      -1.52919912       0.93201394 
C      -2.43708110      -2.59109279       1.75287649 
C      -1.56397457      -2.19349740       2.73492873 
C      -1.27655732      -3.34213416       3.57387920 
O      -1.70326015      -4.47349522       3.48273112 
O      -0.39137727      -2.88558628       4.53634406 
C      -1.03812745      -0.96817761       2.94972553 
C      -1.35453053       0.08777623       2.11436781 
C      -2.21139989      -0.31941725       1.11051051 
N      -2.76634481       0.73228084       0.36712896 
N      -2.07007652       1.72385609       0.07538925 
C      -0.87451075       1.77733672      -0.64335282 
C      -0.79373410       0.80534740      -1.60576173 
C       0.31550300       1.06189110      -2.38893541 
C       0.35239740      -0.01103309      -3.40232389 
O      -0.36218146      -0.96075420      -3.59705541 
O       1.44835291       0.21433100      -4.22678594 
C       1.15037888       2.11132018      -2.19863873 
C       1.02550083       3.09356162      -1.23367880 
C       1.87749483       4.17538598      -1.05493261 
C       3.24690578       4.14814964      -1.32672331 
C       4.07029096       5.19578421      -1.14540540 
C       3.68414064       6.45025637      -0.67582988 
C       2.31249345       6.47456490      -0.40917463 
C       1.48822636       5.42577204      -0.57981641 
C      -0.10617645       2.85303826      -0.45527468 
H      -4.28704402      -2.84222803       0.03341893 
H      -4.34785414      -1.03732503      -0.28838566 
H      -3.11293933      -2.11024680      -1.07318545 
H      -2.83865816      -3.58823219       1.62683612 
H      -0.26482440      -3.70805173       5.03327902 
H      -0.35319408      -0.68731090       3.75568962 
H      -0.95732564       1.07622049       2.28227673 
H      -1.44854147      -0.03107553      -1.77479010 
H       1.94079216       1.01065198      -3.98348286 
H       2.03134470       2.32757680      -2.83024913 
H       3.59843189       3.17294912      -1.67345668 
H       5.14315038       5.14881794      -1.35699777 
H       4.34583481       7.28977647      -0.53461193 
H       1.98125590       7.45021816      -0.04364581 
H       0.41460622       5.49520842      -0.38006478 
H      -0.23978808       3.58611904       0.33831832 
43
Properties=species:S:1:pos:R:3 pbc="F F F"
C      -3.84400277      -1.80286947      -0.09853688 
C      -2.82902431      -1.44222214       0.90788917 
C      -2.38900435      -2.50835670       1.66740992 
C      -1.43755143      -2.15586613       2.59817434 
C      -1.02921317      -3.31034084       3.38020608 
O      -1.43325621      -4.45317025       3.28942235 
O      -0.07475543      -2.89332050       4.28196448 
C      -0.93380518      -0.90791526       2.79989630 
C      -1.35884385       0.15722643       2.02856701 
C      -2.29698545      -0.20431361       1.07771530 
N      -2.92474138       0.86887131       0.41828005 
N      -2.28636522       1.84135591      -0.02465892 
C      -1.02720870       1.83143487      -0.65169641 
C      -0.85642416       0.81135986      -1.55774321 
C       0.31228973       0.97009391      -2.27906766 
C       0.43041348      -0.15322240      -3.23222806 
O      -0.31086018      -1.08467753      -3.42353983 
O       1.59224047      -0.03101334      -3.96544624 
C       1.15909488       2.01906715      -2.08466521 
C       0.96429084       3.05681308      -1.18893030 
C       1.84035543       4.14633536      -1.01049809 
C       3.22322531       4.06212120      -1.17317221 
C       4.06098342       5.10596802      -0.99619174 
C       3.65195391       6.38566104      -0.64188259 
C       2.27202263       6.47333753      -0.48286101 
C       1.43334473       5.42888946      -0.65051259 
C      -0.22857834       2.90320511      -0.48544721 
H      -4.39526131      -2.73031588       0.08606396 
H      -4.52988431      -0.93547768      -0.17291334 
H      -3.35244020      -1.92850268      -1.09289876 
H      -2.77339633      -3.51236199       1.54142553 
H       0.12685460      -3.72260106       4.74467696 
H      -0.18789901      -0.65211835       3.55690981 
H      -0.97971898       1.15449531       2.19113885 
H      -1.52072350      -0.01900546      -1.72674665 
H       2.10007307       0.75571146      -3.72952031 
H       2.08679533       2.15940992      -2.66294025 
H       3.58725395       3.06325801      -1.42972714 
H       5.14422548       5.01145371      -1.12200281 
H       4.32199370       7.21858719      -0.50397866 
H       1.92467622       7.47330410      -0.20852232 
H       0.35064218       5.54217947      -0.53649134 
H      -0.41745209       3.68741550       0.24940170 
43
Properties=species:S:1:pos:R:3 pbc="F F F"
C      -3.98813416      -1.67112960      -0.07046329 
C      -2.89517206      -1.35856185       0.88099276 
C      -2.34173653      -2.41770050       1.57968818 
C      -1.31044507      -2.11945696       2.45809141 
C      -0.77860447      -3.27069995       3.18422632 
O      -1.15981903      -4.42751875       3.09383238 
O       0.24099796      -2.90160539       4.02291071 
C      -0.83109656      -0.83954352       2.64719197 
C      -1.36262980       0.22361157       1.94045363 
C      -2.38253173      -0.08344794       1.04487905 
N      -3.07709949       1.00393455       0.45948763 
N      -2.49106057       1.94974518      -0.11328631 
C      -1.18456786       1.88178301      -0.66235557 
C      -0.91516785       0.81749610      -1.50688870 
C       0.30529616       0.87303024      -2.16584045 
C       0.51732481      -0.29676961      -3.05847453 
O      -0.25675039      -1.20979291      -3.24458292 
O       1.72621163      -0.27388150      -3.69922820 
C       1.17055992       1.92880474      -1.96906356 
C       0.89692618       3.01412276      -1.14346372 
C       1.80659688       4.12096253      -0.96419590 
C       3.19358838       3.97248742      -1.02088956 
C       4.05267052       5.02023616      -0.84703546 
C       3.61403877       6.31491959      -0.60843295 
C       2.23527928       6.47272706      -0.55399421 
C       1.37495559       5.42507964      -0.71983714 
C      -0.34484303       2.95465844      -0.51216581 
H      -4.50125616      -2.61147902       0.13530707 
H      -4.70529119      -0.83695760      -0.06157969 
H      -3.59091937      -1.74490622      -1.09980322 
H      -2.70767976      -3.43053343       1.45526671 
H       0.51760308      -3.72944319       4.44966673 
H      -0.02958175      -0.61396538       3.35143717 
H      -1.00318707       1.23222914       2.09733891 
H      -1.59094479      -0.00901330      -1.67466385 
H       2.25341739       0.50252028      -3.47482015 
H       2.13361147       1.98867419      -2.49113897 
H       3.56981585       2.96057167      -1.18729323 
H       5.13493318       4.87660078      -0.88852546 
H       4.29457262       7.14343087      -0.47353642 
H       1.87150978       7.48592850      -0.37179814 
H       0.29403073       5.58270503      -0.68915404 
H      -0.59008794       3.78003079       0.15806287 
43
Properties=species:S:1:pos:R:3:forces:R:3 energy=-1630.715326840069 pbc="F F F"
C      -4.13726122      -1.53376579      -0.05051828       0.00130058      -0.00363907       0.00090026 
C      -2.96181257      -1.27587749       0.84968715       0.00317307       0.00287062      -0.00165541 
C      -2.29607058      -2.32248180       1.49088807       0.00035422       0.00113152      -0.00216571 
C      -1.18203145      -2.08311613       2.31610705      -0.00004854      -0.00010888       0.00475228 
C      -0.52356728      -3.22810257       2.99011834      -0.00270810      -0.00084915      -0.00025376 
O      -0.88240411      -4.40071830       2.89968472      -0.00056109       0.00133070       0.00186637 
O       0.55919624      -2.91370531       3.76568013      -0.00253523      -0.00313411       0.00250979 
C      -0.72717389      -0.76423028       2.49582572      -0.00100484       0.00025901      -0.00119341 
C      -1.36476094       0.28982679       1.84930110       0.00259761       0.00097005       0.00273792 
C      -2.46766698       0.04155249       1.01004329      -0.00147710      -0.00040464      -0.00145060 
N      -3.23248019       1.13848460       0.48873998      -0.00068538      -0.00075561       0.00052821 
N      -2.69507903       2.05895527      -0.18758758       0.00219479       0.00049824      -0.00115294 
C      -1.34434709       1.92946576      -0.67195133      -0.00187940      -0.00240916      -0.00100605 
C      -0.97366318       0.82195107      -1.45187495       0.00082244       0.00379248      -0.00215816 
C       0.29503573       0.77243206      -2.05037491       0.00354780      -0.00344257       0.00074087 
C       0.61273444      -0.44501827      -2.88355879       0.00012247      -0.00088236       0.00028560 
O      -0.20016152      -1.33889899      -3.06383929      -0.00058875       0.00051851       0.00012633 
O       1.85750701      -0.51682214      -3.43796725       0.00005883       0.00094812      -0.00208385 
C       1.18903056       1.83928812      -1.85498588      -0.00139079       0.00204815       0.00091180 
C       0.82527712       2.96849723      -1.09699742       0.00032404      -0.00429748      -0.00043277 
C       1.77536774       4.09820956      -0.91657764       0.00131105       0.00057507       0.00088749 
C       3.16374564       3.87487490      -0.87141817      -0.00428487      -0.00048090       0.00042723 
C       4.05193667       4.93539832      -0.69922938      -0.00074948       0.00056806      -0.00018264 
C       3.57280888       6.24071690      -0.57531841       0.00158656       0.00241284      -0.00066605 
C       2.19776758       6.47795871      -0.62150405       0.00239316      -0.00314226       0.00221929 
C       1.30723214       5.41858373      -0.78684932      -0.00236594       0.00256073      -0.00149447 
C      -0.45995453       3.01125844      -0.53053882      -0.00134908       0.00228372       0.00144599 
H      -4.60929675      -2.48598567       0.17906595       0.00047052      -0.00145562      -0.00065324 
H      -4.87754160      -0.73950615       0.04126845       0.00147953       0.00072074      -0.00064881 
H      -3.82670091      -1.56236197      -1.09721744      -0.00104705       0.00100739       0.00164570 
H      -2.64164068      -3.34630677       1.36947815      -0.00222245       0.00137862       0.00147087 
H       0.90869223      -3.73105440       4.15516640       0.00043995      -0.00075313      -0.00072812 
H       0.12347958      -0.57379444       3.14439671       0.00084052      -0.00099194       0.00051319 
H      -1.02649286       1.31184795       2.00058466      -0.00087360      -0.00079757      -0.00300892 
H      -1.66373533      -0.00179360      -1.61705118       0.00068091       0.00028908      -0.00012961 
H       2.40958716       0.24739117      -3.22797551      -0.00084813      -0.00063912      -0.00100432 
H       2.17504851       1.81745562      -2.31899976       0.00125754      -0.00109963      -0.00191813 
H       3.55181066       2.86135813      -0.94963891       0.00078552       0.00094420      -0.00013426 
H       5.12118713       4.74193173      -0.66010706      -0.00171429       0.00054694       0.00162128 
H       4.26621293       7.06732962      -0.44304488       0.00037834      -0.00091954      -0.00131865 
H       1.81730561       7.49231532      -0.53017726       0.00141170       0.00284485       0.00021975 
H       0.23951262       5.62052633      -0.83510663       0.00145120      -0.00101671       0.00035988 
H      -0.76129995       3.86581391       0.07069630      -0.00064826       0.00071981      -0.00073020 
