35
Properties=species:S:1:pos:R:3:forces:R:3 pbc="F F F" energy=-1610.2660505653262
C       6.04365752       3.57011093       0.66893359       0.00092711      -0.00118839       0.00063054 
O       4.98682315       2.97608814      -0.06739286       0.00013337      -0.00062259       0.00321391 
C       4.19836222       2.05651514       0.53649660      -0.00130195       0.00004383      -0.00125974 
C       4.36144150       1.64879245       1.87240708       0.00158777      -0.00048394      -0.00053882 
C       3.50125242       0.68183709       2.42550635       0.00196137       0.00047432       0.00036604 
C       3.72771201       0.27543651       3.84152941       0.00066621       0.00025520       0.00165461 
O       4.62504854       0.72216573       4.55523898      -0.00266563      -0.00008591      -0.00100724 
O       2.86224355      -0.64816206       4.33632555      -0.00020752       0.00011418      -0.00123237 
C       2.46648585       0.12387357       1.65969042      -0.00010699      -0.00039319      -0.00058134 
C       2.28923884       0.53578037       0.32514754      -0.00102199      -0.00025794      -0.00038546 
N       1.30384977      -0.07548023      -0.51410941       0.00108777      -0.00188560       0.00089313 
N       0.25790647      -0.48166792       0.10664767      -0.00013610       0.00004198       0.00050868 
C      -0.75817113      -1.08268263      -0.68074534       0.00070992      -0.00013051       0.00095313 
C      -1.19240705      -0.47092355      -1.87238774      -0.00130709      -0.00055538      -0.00098116 
C      -2.28736258      -0.98541230      -2.56591736       0.00043901       0.00229006       0.00083697 
C      -2.97245433      -2.10571414      -2.08726279      -0.00245265       0.00082384      -0.00229486 
C      -2.54616879      -2.70316523      -0.89535237       0.00067195      -0.00096874       0.00266905 
F      -3.20891911      -3.77606369      -0.45996521       0.00167611      -0.00226698      -0.00154277 
C      -1.44682385      -2.21417120      -0.15661867      -0.00089309       0.00066245       0.00014008 
C      -0.93917034      -2.82980440       1.09822319      -0.00064964       0.00071550       0.00111504 
O       0.11459685      -2.49399236       1.64674181      -0.00056949       0.00118796      -0.00004490 
O      -1.70661343      -3.79942358       1.65387631       0.00100927       0.00098579       0.00065491 
C       3.16481444       1.48576583      -0.25122271       0.00001544      -0.00021277      -0.00505134 
C       2.98180715       1.90136464      -1.61771328      -0.00077597      -0.00308768       0.00492578 
N       2.82565701       2.22704817      -2.71487919      -0.00244393       0.00079887      -0.00318593 
H       6.76602537       2.81269950       1.00675091      -0.00049872       0.00219674      -0.00017769 
H       6.54752972       4.27456069       0.00295317       0.00051853       0.00057129      -0.00119587 
H       5.66010215       4.11293105       1.54518467       0.00119678       0.00145584       0.00060310 
H       5.14629694       2.05250280       2.50459247      -0.00014380      -0.00101718      -0.00009874 
H       3.09833975      -0.84545927       5.25637746      -0.00096510      -0.00073104      -0.00000205 
H       1.81343525      -0.63991412       2.07393903      -0.00083004      -0.00004898       0.00165470 
H      -0.66452822       0.40478880      -2.23767052       0.00197058       0.00011972      -0.00176217 
H      -2.60947159      -0.51498868      -3.49091710       0.00010132       0.00157571       0.00056721 
H      -3.82200746      -2.51657575      -2.62282191       0.00087365       0.00026365      -0.00057216 
H      -1.27636445      -4.12092801       2.46152353       0.00142353      -0.00064011       0.00052771 
35
Properties=species:S:1:pos:R:3 pbc="F F F"
C       5.92708668       3.60147567       0.65164622 
O       4.92531155       2.94837005      -0.10698077 
C       4.16220586       2.02317601       0.49980498 
C       4.26280325       1.64090781       1.84150567 
C       3.42806316       0.66395727       2.38509065 
C       3.58114818       0.28259058       3.80449797 
O       4.43296949       0.78486584       4.54303760 
O       2.73164143      -0.65830252       4.28152723 
C       2.45171702       0.04481983       1.60087332 
C       2.34305590       0.43690316       0.26337236 
N       1.44970679      -0.23580278      -0.60615951 
N       0.42403933      -0.62868573       0.02490646 
C      -0.67291988      -1.13493739      -0.69983804 
C      -1.05598258      -0.41974599      -1.81477966 
C      -2.23093497      -0.84783163      -2.43540696 
C      -2.91229012      -1.90918574      -1.90249416 
C      -2.52030515      -2.59844388      -0.77616968 
F      -3.20458782      -3.62102017      -0.30294960 
C      -1.34311390      -2.19718994      -0.11469173 
C      -0.87023818      -2.90249862       1.06735476 
O       0.23279692      -2.63001826       1.55632698 
O      -1.66006257      -3.83960503       1.62182235 
C       3.18920470       1.39155245      -0.30642632 
C       3.06810881       1.77871485      -1.67620097 
N       2.95939454       2.08300564      -2.78442013 
H       6.65591200       2.86889846       1.04829474 
H       6.43341929       4.30791798      -0.00912414 
H       5.47757551       4.14781735       1.50445056 
H       5.00739128       2.09413979       2.49674700 
H       2.93011021      -0.82869165       5.21627388 
H       1.81512335      -0.73207966       2.01128992 
H      -0.51409595       0.42420432      -2.22319184 
H      -2.54247117      -0.30858047      -3.32532281 
H      -3.83513777      -2.25559510      -2.38794506 
H      -1.21448105      -4.21737025       2.39638804 
35
Properties=species:S:1:pos:R:3 pbc="F F F"
C       5.81141415       3.63233749       0.63679291 
O       4.86759064       2.92131963      -0.14400754 
C       4.12563896       1.99079020       0.46475739 
C       4.16655315       1.63515010       1.81198795 
C       3.35422384       0.64744993       2.34608157 
C       3.43758716       0.29176250       3.76890648 
O       4.23932878       0.84834840       4.53008347 
O       2.60389396      -0.66677960       4.22923391 
C       2.43922149      -0.03142573       1.54446861 
C       2.39676251       0.34122591       0.20460001 
N       1.60682077      -0.39218249      -0.70026262 
N       0.59951369      -0.79601611      -0.06237012 
C      -0.58946928      -1.18166885      -0.71494090 
C      -0.91929180      -0.37297113      -1.76575511 
C      -2.18023386      -0.70441486      -2.30858995 
C      -2.86594257      -1.72032482      -1.72610260 
C      -2.50030988      -2.49205831      -0.65633062 
F      -3.20937060      -3.46399609      -0.14981003 
C      -1.23913871      -2.19018948      -0.07525490 
C      -0.79679554      -2.97571550       1.03996035 
O       0.34982567      -2.76958648       1.46383624 
O      -1.60954606      -3.88052864       1.59466166 
C       3.21581250       1.29999753      -0.36017719 
C       3.15412536       1.65796892      -1.73355284 
N       3.09248031       1.94004574      -2.85054540 
H       6.54410724       2.92871036       1.09064187 
H       6.32025605       4.34068824      -0.01990200 
H       5.29696022       4.18051647       1.45997171 
H       4.86583072       2.13632897       2.48755282 
H       2.76298837      -0.80984088       5.17597391 
H       1.81821884      -0.82135774       1.95098471 
H      -0.36109250       0.43842439      -2.21150328 
H      -2.48116815      -0.10261485      -3.15971241 
H      -3.85124068      -1.98753930      -2.14888532 
H      -1.15339058      -4.31412167       2.33031652 
35
Properties=species:S:1:pos:R:3 pbc="F F F"
C       5.69676655       3.66220938       0.62375894 
O       4.81393954       2.89554245      -0.17743182 
C       4.08852873       1.95921912       0.43137507 
C       4.07253044       1.63133418       1.78335979 
C       3.27962043       0.63191227       2.30814286 
C       3.29756549       0.30318183       3.73419116 
O       4.04513022       0.91148697       4.51517622 
O       2.47952484      -0.67309828       4.17924043 
C       2.42827441      -0.10390506       1.49055196 
C       2.44802369       0.24848633       0.14925453 
N       1.77119845      -0.54096556      -0.79101558 
N       0.76791433      -0.99228410      -0.17158412 
C      -0.50351635      -1.21810640      -0.72270320 
C      -0.78859394      -0.33560529      -1.72386109 
C      -2.12770989      -0.55703488      -2.17946229 
C      -2.82702565      -1.53655873      -1.55331180 
C      -2.47808343      -2.38045765      -0.53508429 
F      -3.21546421      -3.30223742       0.00317907 
C      -1.14124793      -2.19263103      -0.04329583 
C      -0.72180421      -3.04829521       1.01122262 
O       0.46020180      -2.91059208       1.36819526 
O      -1.55662112      -3.92204610       1.56858419 
C       3.24450846       1.21219905      -0.41109161 
C       3.23967243       1.54020610      -1.78809192 
N       3.22394444       1.79928774      -2.91169754 
H       6.43051363       2.99139559       1.13256386 
H       6.20852504       4.37231014      -0.02930470 
H       5.12024575       4.21019049       1.41190717 
H       4.72254998       2.17801830       2.47606950 
H       2.59812152      -0.78899923       5.13531032 
H       1.82188983      -0.90656648       1.89269642 
H      -0.21161568       0.44277619      -2.20280615 
H      -2.41978958       0.10043853      -2.98966146 
H      -3.86079340      -1.71385792      -1.90352805 
H      -1.09476047      -4.40922094       2.26226136 
35
Properties=species:S:1:pos:R:3 pbc="F F F"
C       5.58271055       3.69067800       0.61173438 
O       4.76385202       2.87124900      -0.20682688 
C       4.05067265       1.92789220       0.39926546 
C       3.98009280       1.62876364       1.75478457 
C       3.20395033       0.61643826       2.27033500 
C       3.16074306       0.31656792       3.69929663 
O       3.85052932       0.97318501       4.49698589 
O       2.35832828      -0.67732443       4.13069220 
C       2.41775136      -0.17303622       1.43781821 
C       2.49438439       0.15643383       0.09640546 
N       1.93183565      -0.68256422      -0.86866247 
N       0.91987440      -1.20937206      -0.31169261 
C      -0.41481617      -1.24533228      -0.72348584 
C      -0.66783110      -0.30930022      -1.68583433 
C      -2.06638289      -0.40998864      -2.04333321 
C      -2.78523850      -1.35540835      -1.37980363 
C      -2.44639213      -2.26303530      -0.41245675 
F      -3.21185325      -3.13503598       0.15961781 
C      -1.05288528      -2.20003673      -0.02136581 
C      -0.64897863      -3.11793957       0.97692764 
O       0.55923134      -3.05045173       1.26850306 
O      -1.50384951      -3.96288683       1.53985946 
C       3.27467501       1.12795120      -0.45839222 
C       3.32479020       1.42556716      -1.83872939 
N       3.35358733       1.66089468      -2.96697444 
H       6.31449381       3.05625226       1.17292425 
H       6.09790820       4.40238562      -0.03747865 
H       4.94816767       4.23620283       1.36029413 
H       4.57785621       2.21814859       2.46128082 
H       2.43567351      -0.76662139       5.09361301 
H       1.82531780      -0.98783949       1.83454581 
H      -0.07181574       0.43518406      -2.19590092 
H      -2.35112927       0.29779637      -2.81128479 
H      -3.85297503      -1.43710837      -1.65016688 
H      -1.04011421      -4.50057655       2.19061431 
35
Properties=species:S:1:pos:R:3 pbc="F F F"
C       5.46798926       3.71746940       0.59991388 
O       4.71618494       2.84829872      -0.23232607 
C       4.01175038       1.89582972       0.36765583 
C       3.88816844       1.62650928       1.72522229 
C       3.12682876       0.59983921       2.23147603 
C       3.02584642       0.33130722       3.66296458 
O       3.65436817       1.03254795       4.47418885 
O       2.23923521      -0.68005236       4.08231836 
C       2.40776945      -0.24004364       1.38502715 
C       2.53586326       0.06189088       0.04377353 
N       2.07430457      -0.82347758      -0.92517505 
N       1.04868415      -1.42508254      -0.48190013 
C      -0.32315640      -1.26792802      -0.72023003 
C      -0.55901291      -0.29229233      -1.64819905 
C      -1.99036087      -0.26724118      -1.89776218 
C      -2.73039405      -1.17574039      -1.20263310 
C      -2.39971601      -2.14100200      -0.28865603 
F      -3.18860685      -2.96404611       0.32077397 
C      -0.97508375      -2.20664802      -0.00895414 
C      -0.58077638      -3.18188813       0.93488505 
O       0.64421506      -3.18706108       1.16394655 
O      -1.45322922      -4.00096544       1.50652962 
C       3.30581045       1.04592603      -0.50225224 
C       3.40994224       1.31301514      -1.88527277 
N       3.48222131       1.52380484      -3.01633475 
H       6.19461969       3.12290134       1.21089542 
H       5.98709441       4.43076880      -0.04469341 
H       4.77989345       4.25814737       1.30491405 
H       4.43107998       2.25580782       2.44217519 
H       2.27453388      -0.74345909       5.04976500 
H       1.82908718      -1.06657361       1.77543999 
H       0.05430325       0.41683674      -2.18809782 
H      -2.26881453       0.48713586      -2.62199281 
H      -3.81832048      -1.16015384      -1.38805767 
H      -0.99015829      -4.58664867       2.11378118 
35
Properties=species:S:1:pos:R:3 pbc="F F F"
C       5.35091456       3.74236355       0.58770454 
O       4.66955739       2.82641732      -0.25437087 
C       3.97146574       1.86191245       0.33566060 
C       3.79563937       1.62374204       1.69373197 
C       3.04793560       0.58099006       2.19059856 
C       2.89115978       0.34669902       3.62412683 
O       3.45474829       1.08880976       4.44566373 
O       2.12067868      -0.68216377       4.03286868 
C       2.39943733      -0.30586478       1.33197473 
C       2.57511867      -0.03738961      -0.01080891 
N       2.18942928      -0.97169589      -0.96267221 
N       1.15009953      -1.61515285      -0.66810453 
C      -0.22737054      -1.29166011      -0.71838720 
C      -0.46243423      -0.28077352      -1.60728151 
C      -1.89633902      -0.13136927      -1.74287858 
C      -2.65742682      -0.99760023      -1.02080358 
C      -2.33504916      -2.01599693      -0.16452184 
F      -3.14100462      -2.79213053       0.48499144 
C      -0.90750428      -2.20733142      -0.00288699 
C      -0.51740941      -3.23802773       0.88526501 
O       0.71481447      -3.31938079       1.05426826 
O      -1.40499902      -4.03437688       1.46886778 
C       3.33799125       0.96472725      -0.54361040 
C       3.49591647       1.20091693      -1.92837956 
N       3.61125192       1.38624839      -3.06046856 
H       6.06907728       3.19117680       1.24591263 
H       5.87426255       4.45745398      -0.05122338 
H       4.61375190       4.27575483       1.24544485 
H       4.28102016       2.29019368       2.41788024 
H       2.11285139      -0.72043961       5.00248597 
H       1.83459505      -1.14417545       1.71616876 
H       0.16590802       0.39131351      -2.17575305 
H      -2.16936352       0.66717254      -2.42102650 
H      -3.75202937      -0.88574675      -1.11821574 
H      -0.94453052      -4.66688372       2.03088810 
35
Properties=species:S:1:pos:R:3 pbc="F F F"
C       5.23023076       3.76507827       0.57485843 
O       4.62278928       2.80542852      -0.27345752 
C       3.92973474       1.82524707       0.30262013 
C       3.70184527       1.61994104       1.65979890 
C       2.96711118       0.55898151       2.14711512 
C       2.75534571       0.36214522       3.58220248 
O       3.25036598       1.14118829       4.41074617 
O       2.00129408      -0.68449518       3.98150680 
C       2.39321366      -0.37102838       1.27872549 
C       2.61491580      -0.14164507      -0.06756633 
N       2.28040112      -1.12880921      -0.99303338 
N       1.22618029      -1.76781320      -0.84728285 
C      -0.12651295      -1.32030668      -0.72337870 
C      -0.37689509      -0.27030520      -1.55970870 
C      -1.78498142      -0.00320739      -1.58130447 
C      -2.56930874      -0.82105585      -0.83494640 
C      -2.25275341      -1.88945786      -0.04183025 
F      -3.07159458      -2.62162771       0.64877274 
C      -0.84936713      -2.19885427       0.00177082 
C      -0.45693971      -3.28586569       0.83026647 
O       0.77270492      -3.44724459       0.94050212 
O      -1.35749640      -4.06259656       1.42872706 
C       3.37161032       0.88385418      -0.58355246 
C       3.58334403       1.08799694      -1.96922479 
N       3.74177037       1.24672341      -3.10045694 
H       5.93660201       3.26073003       1.27746447 
H       5.75801078       4.48238409      -0.05729791 
H       4.44855328       4.28884084       1.18184012 
H       4.12695346       2.32050608       2.38786049 
H       1.94913593      -0.69847806       4.95074996 
H       1.84230371      -1.22139135       1.65735523 
H       0.26522776       0.36301764      -2.15543263 
H      -2.05352254       0.83779442      -2.20989396 
H      -3.65603702      -0.61625973      -0.84376025 
H      -0.90207132      -4.74168329       1.94235378 
35
Properties=species:S:1:pos:R:3 pbc="F F F"
C       5.10565921       3.78534249       0.56151629 
O       4.57507811       2.78534655      -0.29004291 
C       3.88671457       1.78539477       0.26826474 
C       3.60679181       1.61501126       1.62350558 
C       2.88449129       0.53325714       2.10085167 
C       2.61792587       0.37730915       3.53727077 
O       3.04139171       1.18899465       4.36947129 
O       1.88036856      -0.68755965       3.92804518 
C       2.38850260      -0.43585882       1.22507366 
C       2.65640328      -0.24932068      -0.12510788 
N       2.36068429      -1.28873794      -1.02712433 
N       1.28330725      -1.88852441      -1.00225033 
C      -0.01931599      -1.35439709      -0.73766837 
C      -0.29993810      -0.25650268      -1.50362888 
C      -1.66054949       0.11875147      -1.41748608 
C      -2.47514944      -0.64497741      -0.64577241 
C      -2.15667551      -1.76265406       0.07755891 
F      -2.98911019      -2.45274459       0.80895836 
C      -0.79904893      -2.18068692       0.01037666 
C      -0.39585883      -3.32715730       0.77306244 
O       0.82111873      -3.57084173       0.82482241 
O      -1.30791422      -4.08731808       1.38829402 
C       3.40666741       0.80353902      -0.62296592 
C       3.67222560       0.97368773      -2.00910730 
N       3.87393067       1.10458389      -3.13743996 
H       5.79713074       3.33084687       1.30502277 
H       5.63794105       4.50543222      -0.06309815 
H       4.28431665       4.29743479       1.11461679 
H       3.96928047       2.34603665       2.35210697 
H       1.78297217      -0.67824274       4.89413442 
H       1.85144071      -1.29854418       1.59837172 
H       0.35693285       0.33576562      -2.12541916 
H      -1.92622419       1.00028190      -1.99190813 
H      -3.53803167      -0.35306718      -0.56899693 
H      -0.86129485      -4.81214843       1.84980137 
35
Properties=species:S:1:pos:R:3 pbc="F F F"
C       4.97779643       3.80314170       0.54818866 
O       4.52592160       2.76631471      -0.30459211 
C       3.84271098       1.74244871       0.23271216 
C       3.51094161       1.60932694       1.58551093 
C       2.80054466       0.50381775       2.05206681 
C       2.47913357       0.39220093       3.49007232 
O       2.82933485       1.23193837       4.32267250 
O       1.75778294      -0.69143059       3.87295497 
C       2.38418752      -0.50043070       1.17067942 
C       2.69905947      -0.35874111      -0.18248500 
N       2.44432977      -1.44425596      -1.06765661 
N       1.33208261      -1.99227470      -1.13044725 
C       0.09440837      -1.39269341      -0.76014439 
C      -0.22761117      -0.23523270      -1.43979320 
C      -1.52946506       0.23847556      -1.25613936 
C      -2.38561189      -0.46644036      -0.45282429 
C      -2.05366512      -1.63676019       0.19322702 
F      -2.90450454      -2.28333421       0.96469291 
C      -0.75341656      -2.15519462       0.02702906 
C      -0.33026867      -3.36588027       0.71633185 
O       0.86423778      -3.69065001       0.70963743 
O      -1.25370450      -4.11215242       1.34889419 
C       3.44246220       0.72401428      -0.66253617 
C       3.76194330       0.85793544      -2.04920045 
N       4.00701605       0.96003142      -3.17243885 
H       5.65176887       3.40062738       1.32819668 
H       5.51458794       4.52656435      -0.06874023 
H       4.12201953       4.30197456       1.04487786 
H       3.80940226       2.36642576       2.31122656 
H       1.61494645      -0.66000375       4.83292636 
H       1.86070462      -1.37567288       1.53819750 
H       0.44697951       0.31188163      -2.08664732 
H      -1.79479326       1.15755646      -1.77081032 
H      -3.40823683      -0.09611525      -0.29783302 
H      -0.82086113      -4.87968055       1.75530267 
35
Properties=species:S:1:pos:R:3:forces:R:3 pbc="F F F" energy=-1610.1960491904233
C       4.84778300       3.81890657       0.53566638       0.00025950      -0.00149632      -0.00028280 
O       4.47505174       2.74846172      -0.31765249       0.00029919      -0.00127092      -0.00374773 
C       3.79812847       1.69708630       0.19643661       0.00261940      -0.00017389       0.00404567 
C       3.41490757       1.60365704       1.54692247      -0.00079856       0.00150164      -0.00201876 
C       2.71600160       0.47135350       2.00144914       0.00030241       0.00018244       0.00339157 
C       2.33956175       0.40709903       3.44181844       0.00335765       0.00340419      -0.00020889 
O       2.61649158       1.27032438       4.27189345      -0.00101325      -0.00077446      -0.00301525 
O       1.63379043      -0.69578851       3.81718866      -0.00011840      -0.00092367      -0.00045807 
C       2.37911031      -0.56461205       1.11529173       0.00066200       0.00122563      -0.00209259 
C       2.74161112      -0.46885941      -0.23965040       0.00202745       0.00023588       0.00063124 
N       2.53725310      -1.59313118      -1.11261983       0.00188867      -0.00090721       0.00034206 
N       1.39008013      -2.09533630      -1.24139993      -0.00494091       0.00106611       0.00289459 
C       0.20961235      -1.43237685      -0.78572198       0.00213680       0.00283420      -0.00252937 
C      -0.15367714      -0.20429958      -1.37140223      -0.00281195      -0.00020887       0.00298620 
C      -1.39977653       0.36122850      -1.09993537       0.00245359      -0.00033558      -0.00336615 
C      -2.30867319      -0.28120905      -0.25497847      -0.00380783      -0.00276201       0.00462029 
C      -1.95285611      -1.51221049       0.30705823       0.00095064      -0.00134962      -0.00304057 
F      -2.82639100      -2.11073948       1.11748458      -0.00025565      -0.00132477       0.00144453 
C      -0.70689709      -2.12674560       0.05260971      -0.00100515       0.00212567       0.00363017 
C      -0.25771120      -3.40693586       0.66134216       0.00028323      -0.00050228      -0.00034173 
O       0.90632105      -3.80749576       0.59689161       0.00154194      -0.00073700       0.00204243 
O      -1.19396288      -4.14097648       1.31062216      -0.00227602       0.00042633       0.00004314 
C       3.47791052       0.64528630      -0.70274177       0.00033660      -0.00024132      -0.00082423 
C       3.85161248       0.74105747      -2.09040274      -0.00129739      -0.00040649      -0.00163457 
N       4.13982518       0.81393260      -3.20625384       0.00118844       0.00124790       0.00056686 
H       5.50245578       3.46922293       1.34691445      -0.00232299       0.00135986       0.00071668 
H       5.38911301       4.54596123      -0.07425439      -0.00087538       0.00054217       0.00156662 
H       3.96303803       4.30336148       0.97415709      -0.00147021      -0.00226583       0.00070219 
H       3.64929346       2.38184615       2.26640384      -0.00011027      -0.00061009       0.00024733 
H       1.44628377      -0.64364082       4.76801666       0.00114235      -0.00065090      -0.00075258 
H       1.86887734      -1.45253363       1.47621932       0.00025859      -0.00039578      -0.00003527 
H       0.54080671       0.29199989      -2.04236658       0.00184642      -0.00051362       0.00041468 
H      -1.66627425       1.31357618      -1.54975745       0.00123880       0.00034630      -0.00104062 
H      -3.27656945       0.15564037      -0.03285216      -0.00027916       0.00014532      -0.00240905 
H      -0.77996750      -4.94537831       1.66071221      -0.00141056       0.00120700      -0.00248803 
