35
Properties=species:S:1:pos:R:3:forces:R:3 energy=-1610.1014405264848 pbc="F F F"
C       3.17135098       1.94780788      -0.73017110      -0.00062589       0.00084219      -0.00029283 
O       3.40658964       1.21484556      -1.91601787      -0.00202204      -0.00037982      -0.00027076 
C       2.71928388       0.11793962      -2.27380289      -0.00012429       0.00096437      -0.00136184 
C       3.14947433      -0.50763370      -3.48365018       0.00176616       0.00026289       0.00054931 
C       4.24441921       0.00773650      -4.35160183      -0.00039787       0.00032700       0.00146859 
O       4.60637821      -0.56096579      -5.38353259      -0.00168695      -0.00128249      -0.00119292 
O       4.86111091       1.16078872      -3.97660742       0.00183720      -0.00270431      -0.00066569 
C       2.51448466      -1.68316950      -3.92156985       0.00077319      -0.00022026       0.00017895 
C       1.47599976      -2.26491495      -3.19890564      -0.00060706       0.00023748      -0.00028483 
C       1.06892171      -1.66018216      -2.00590398       0.00156241       0.00190477      -0.00191728 
F       0.05047487      -2.21305152      -1.34770557      -0.00033141      -0.00173655       0.00030684 
C       1.65954042      -0.46784250      -1.50769298       0.00104447       0.00086494       0.00017288 
N       1.11918732       0.21725689      -0.37928476      -0.00037718       0.00101934       0.00105387 
N       0.51874212      -0.52279765       0.49275701      -0.00034647      -0.00087172      -0.00111847 
C      -0.14224215       0.20442120       1.52894731      -0.00082771      -0.00005210       0.00189505 
C      -0.38143587      -0.44949085       2.75143827      -0.00145448       0.00258233       0.00241851 
C      -1.07539843       0.20704361       3.77914116      -0.00076262       0.00066317      -0.00117682 
C      -1.29758614      -0.46098505       5.04104290      -0.00134318      -0.00260915       0.00502043 
N      -1.46986665      -0.99461129       6.04873981       0.00089835       0.00096708      -0.00512667 
C      -1.55988265       1.50958182       3.57867634      -0.00111314      -0.00115408       0.00030369 
C      -1.34829750       2.15813539       2.34995089      -0.00095737       0.00010085      -0.00124986 
C      -1.89126146       3.53337021       2.16276263       0.00084064      -0.00158152       0.00030237 
O      -2.52470965       4.15430697       3.01078745       0.00182973       0.00245421       0.00089769 
O      -1.63832164       4.10386214       0.94830541       0.00135945      -0.00006026      -0.00094798 
C      -0.64055675       1.50746489       1.32899107      -0.00070701      -0.00081647       0.00008623 
H       2.22439366       2.50284655      -0.78416152      -0.00117430       0.00049375       0.00018893 
H       3.16310711       1.29144154       0.15077821      -0.00187837       0.00081160       0.00112716 
H       3.99248376       2.66632169      -0.63460478       0.00018256       0.00003383       0.00054757 
H       5.54593037       1.36963579      -4.63166233      -0.00162256      -0.00071273      -0.00257496 
H       2.86006152      -2.12829971      -4.85040060       0.00259005      -0.00028496       0.00099041 
H       0.98456986      -3.16821287      -3.54419208       0.00095374       0.00151849      -0.00264332 
H      -0.00781209      -1.45857121       2.90396725       0.00129449      -0.00059946       0.00198156 
H      -2.10955894       2.02733332       4.35991042      -0.00029896      -0.00034508       0.00162598 
H      -2.03861806       4.98803913       0.92768852      -0.00067704       0.00061067      -0.00065758 
H      -0.48812990       2.00214558       0.37286260       0.00240346      -0.00124801       0.00036578 
35
Properties=species:S:1:pos:R:3 pbc="F F F"
C       3.30562583       1.92430816      -0.70573255 
O       3.42933566       1.22639057      -1.89184250 
C       2.71670983       0.14521902      -2.20218358 
C       3.04328158      -0.45101763      -3.42661189 
C       4.06237519       0.09268872      -4.32562858 
O       4.33643905      -0.45388826      -5.38044376 
O       4.70811052       1.22287687      -3.97893487 
C       2.37414595      -1.60327712      -3.82073173 
C       1.40090553      -2.21126253      -3.06919886 
C       1.09335171      -1.63035682      -1.86174652 
F       0.13702319      -2.20986940      -1.16259038 
C       1.72115785      -0.46231281      -1.40630130 
N       1.30224655       0.18145823      -0.24919241 
N       0.70075402      -0.49492978       0.63066134 
C      -0.04399941       0.20706468       1.56825408 
C      -0.33856605      -0.46448278       2.74399532 
C      -1.10895802       0.17222391       3.68915596 
C      -1.39495332      -0.50963340       4.90282509 
N      -1.62237059      -1.05688412       5.88266601 
C      -1.58317815       1.44655790       3.42903892 
C      -1.31406733       2.11783316       2.25038526 
C      -1.84815718       3.46506182       2.00454835 
O      -2.54805848       4.07449365       2.78812647 
O      -1.52923804       4.04971351       0.83162480 
C      -0.53305615       1.48289520       1.31434287 
H       2.34929520       2.46026162      -0.66057430 
H       3.35926090       1.23399856       0.14296752 
H       4.09989299       2.66250692      -0.63867591 
H       5.34950001       1.45151689      -4.67490489 
H       2.64689247      -2.03353168      -4.77702145 
H       0.88465031      -3.10512647      -3.38727723 
H       0.03410985      -1.46149971       2.93827856 
H      -2.19973598       1.95784161       4.15879328 
H      -1.94018228       4.92801313       0.77553626 
H      -0.32771681       1.99674463       0.38367187 
35
Properties=species:S:1:pos:R:3 pbc="F F F"
C       3.43837392       1.90203020      -0.68258914 
O       3.45002255       1.23810932      -1.86884078 
C       2.71472763       0.17220391      -2.13060410 
C       2.93696956      -0.39480337      -3.37044345 
C       3.88225181       0.17690332      -4.29987042 
O       4.06582380      -0.34670608      -5.37776320 
O       4.55808162       1.28412459      -3.98210022 
C       2.23572080      -1.52440380      -3.72106972 
C       1.32569992      -2.15788572      -2.94056194 
C       1.11816478      -1.60096471      -1.71807013 
F       0.22452103      -2.20674259      -0.97803761 
C       1.78145396      -0.45695227      -1.30745612 
N       1.48764434       0.14505590      -0.11747862 
N       0.88555716      -0.46689119       0.76949737 
C       0.05146394       0.21045225       1.60759820 
C      -0.29472823      -0.47960579       2.73713523 
C      -1.14416762       0.13780050       3.59924666 
C      -1.49246513      -0.55805865       4.76572354 
N      -1.77491758      -1.11846734       5.71641449 
C      -1.60621037       1.38452820       3.28160619 
C      -1.28122491       2.07786723       2.15100118 
C      -1.80475512       3.39744316       1.84770466 
O      -2.57297182       3.99463301       2.56472486 
O      -1.42038163       3.99665003       0.71657084 
C      -0.42510267       1.45881234       1.29933376 
H       2.47398077       2.41675378      -0.53189491 
H       3.55820361       1.17559415       0.13274604 
H       4.20598527       2.65852538      -0.64360401 
H       5.15180881       1.53276318      -4.71756237 
H       2.43231301      -1.93813707      -4.70377437 
H       0.78527970      -3.04175818      -3.23102422 
H       0.07591528      -1.46366865       2.97275093 
H      -2.29163887       1.88790086       3.95590824 
H      -1.84186491       4.86733020       0.62404164 
H      -0.16670801       1.99116014       0.39602076 
35
Properties=species:S:1:pos:R:3 pbc="F F F"
C       3.56710920       1.88025511      -0.65993875 
O       3.46830743       1.25069445      -1.84502365 
C       2.71343380       0.19838435      -2.05983149 
C       2.83056792      -0.33834797      -3.31413472 
C       3.70397133       0.25961893      -4.27492337 
O       3.79443963      -0.23870579      -5.37325055 
O       4.41099014       1.34454347      -3.98650881 
C       2.09907719      -1.44703102      -3.62321152 
C       1.25056003      -2.10407160      -2.81226119 
C       1.14348748      -1.57247392      -1.57592441 
F       0.31350472      -2.20336792      -0.79523565 
C       1.83965021      -0.45032830      -1.20933838 
N       1.67577243       0.10571366       0.01325614 
N       1.07133353      -0.43590223       0.91117252 
C       0.14503597       0.21313550       1.64539793 
C      -0.25098852      -0.49375014       2.73179678 
C      -1.17979374       0.10286490       3.50808837 
C      -1.58970006      -0.60633792       4.62926205 
N      -1.92689088      -1.17891642       5.54945231 
C      -1.62967681       1.32426185       3.13667570 
C      -1.24883645       2.03722234       2.05104768 
C      -1.76175069       3.33121528       1.69287506 
O      -2.59774643       3.91377685       2.33936553 
O      -1.31230851       3.94447953       0.60383989 
C      -0.31765293       1.43606547       1.28506693 
H       2.60287376       2.36971416      -0.39907830 
H       3.75843852       1.11852287       0.11649634 
H       4.30961182       2.65373609      -0.64939299 
H       4.95268492       1.61294119      -4.75852904 
H       2.21634675      -1.84154210      -4.62855748 
H       0.68672491      -2.97777660      -3.07526924 
H       0.11710739      -1.46443548       3.00753546 
H      -2.38300303       1.81638579       3.74959814 
H      -1.74369805       4.80579314       0.47360357 
H      -0.00615657       1.98525875       0.41115841 
35
Properties=species:S:1:pos:R:3 pbc="F F F"
C       3.69036292       1.85800428      -0.63665759 
O       3.48466471       1.26453890      -1.81833761 
C       2.71267629       0.22339913      -1.99047929 
C       2.72423839      -0.28103505      -3.25655499 
C       3.52689224       0.34043042      -4.25110450 
O       3.52242366      -0.12929061      -5.36474312 
O       4.26629140       1.40427739      -3.99239886 
C       1.96365173      -1.37129077      -3.52730462 
C       1.17577046      -2.04915220      -2.68338711 
C       1.16927619      -1.54510101      -1.43608630 
F       0.40428215      -2.19938493      -0.61511924 
C       1.89597313      -0.44137143      -1.10961459 
N       1.86545928       0.06152287       0.14055973 
N       1.25544597      -0.39939018       1.05622980 
C       0.23857467       0.21381679       1.68070164 
C      -0.20857436      -0.50599259       2.72838693 
C      -1.21419202       0.06663539       3.41468059 
C      -1.68616187      -0.65460201       4.49278333 
N      -2.07776585      -1.23794346       5.38113616 
C      -1.65410185       1.26609593       2.99381720 
C      -1.21562484       1.99496698       1.94999812 
C      -1.71978638       3.26671589       1.54010595 
O      -2.62039032       3.83108533       2.11118052 
O      -1.20551374       3.89286982       0.49372798 
C      -0.21177340       1.41519613       1.27232629 
H       2.73958870       2.31729569      -0.26466472 
H       3.95766652       1.06503721       0.09183472 
H       4.40994718       2.64741520      -0.65581541 
H       4.75195354       1.69176731      -4.79683085 
H       1.99931285      -1.74331529      -4.54934635 
H       0.58915989      -2.91279738      -2.91958453 
H       0.15714672      -1.46324950       3.04269333 
H      -2.47131183       1.74241641       3.53883121 
H      -1.64556410       4.74314186       0.32435846 
H       0.15282836       1.97888372       0.42995700 
35
Properties=species:S:1:pos:R:3 pbc="F F F"
C       3.80787651       1.83427146      -0.61138595 
O       3.50025762       1.27962450      -1.78727032 
C       2.71209254       0.24712873      -1.92287520 
C       2.61823817      -0.22242600      -3.19675867 
C       3.34998587       0.41934179      -4.22846473 
O       3.25009096      -0.01808738      -5.35062639 
O       4.12308050       1.46360794      -3.99992248 
C       1.82860646      -1.29700584      -3.43313011 
C       1.10165468      -1.99263831      -2.55306700 
C       1.19528677      -1.51880985      -1.29886517 
F       0.49686187      -2.19441960      -0.43812492 
C       1.95168549      -0.42978989      -1.00631200 
N       2.05413979       0.01199583       0.26315453 
N       1.43532835      -0.35620635       1.20326925 
C       0.33427476       0.21185986       1.71366777 
C      -0.16854000      -0.51584507       2.72670461 
C      -1.24575443       0.02865080       3.31865838 
C      -1.78144493      -0.70301160       4.35567880 
N      -2.22721493      -1.29546060       5.21083187 
C      -1.67984283       1.20998066       2.85215387 
C      -1.18031073       1.95047766       1.84770590 
C      -1.67932919       3.20390433       1.38887048 
O      -2.63904755       3.74598450       1.87980580 
O      -1.10033180       3.84141370       0.38603671 
C      -0.10832608       1.39636444       1.26129733 
H       2.88623913       2.25873999      -0.13216496 
H       4.15332101       1.01697065       0.05818118 
H       4.50670369       2.63890787      -0.66243793 
H       4.54942627       1.76913576      -4.83175706 
H       1.78172981      -1.64320447      -4.46452552 
H       0.49264000      -2.84645643      -2.76337963 
H       0.19560186      -1.45979326       3.07811981 
H      -2.55429200       1.66548607       3.32336278 
H      -1.54720328       4.67908144       0.17616754 
H       0.30934206       1.97182294       0.45268072 
35
Properties=species:S:1:pos:R:3 pbc="F F F"
C       3.92061331       1.80818810      -0.58281261 
O       3.51651286       1.29558657      -1.75124493 
C       2.71120797       0.26972434      -1.85701431 
C       2.51282743      -0.16235148      -3.13425472 
C       3.17210236       0.49671131      -4.20689572 
O       2.97784738       0.09499299      -5.33019095 
O       3.98028933       1.52292585      -4.00923920 
C       1.69300235      -1.22379168      -3.34030415 
C       1.02847889      -1.93430807      -2.42068571 
C       1.22110937      -1.49338698      -1.16402689 
F       0.59096152      -2.18813999      -0.26407960 
C       2.00853579      -0.41610652      -0.89855922 
N       2.23904697      -0.04142470       0.38119688 
N       1.60933147      -0.30739825       1.34970582 
C       0.43381635       0.20747499       1.74545553 
C      -0.13149261      -0.52336956       2.72608287 
C      -1.27339804      -0.01115416       3.22036921 
C      -1.87541435      -0.75172518       4.21757950 
N      -2.37515489      -1.35157701       5.03807354 
C      -1.70718673       1.15559913       2.71067353 
C      -1.14198245       1.90355921       1.74441530 
C      -1.64061151       3.14245448       1.23824751 
O      -2.65241595       3.65827141       1.64543263 
O      -0.99688121       3.78971953       0.28011909 
C      -0.00767896       1.37940467       1.25150795 
H       3.04305372       2.19448658      -0.00512592 
H       4.34327858       0.97538225       0.01687356 
H       4.60020922       2.62779903      -0.66871845 
H       4.34496893       1.84510127      -4.86295249 
H       1.56421844      -1.54116909      -4.37318868 
H       0.39710090      -2.77849268      -2.60607528 
H       0.23230214      -1.45406977       3.11353715 
H      -2.63040547       1.58553535       3.10376248 
H      -1.44827852       4.61334307       0.02869695 
H       0.46291184       1.96380120       0.47891860 
35
Properties=species:S:1:pos:R:3 pbc="F F F"
C       4.03050471       1.77920826      -0.55009691 
O       3.53460143       1.31187356      -1.71072805 
C       2.70956442       0.29156394      -1.79257211 
C       2.40815865      -0.10093548      -3.06915189 
C       2.99226595       0.57313350      -4.18621650 
O       2.70610810       0.20973573      -5.30380001 
O       3.83688755       1.58266359      -4.02054710 
C       1.55598158      -1.15116791      -3.24845040 
C       0.95636218      -1.87424453      -2.28606531 
C       1.24628478      -1.46852389      -1.03085627 
F       0.68607819      -2.18031937      -0.09227587 
C       2.06790907      -0.40134865      -0.78690773 
N       2.41864187      -0.09597614       0.49589093 
N       1.77729955      -0.25576890       1.49324363 
C       0.53763651       0.20154916       1.77762392 
C      -0.09742130      -0.52914346       2.72563804 
C      -1.29693040      -0.05247520       3.12070624 
C      -1.96829969      -0.80086799       4.07843947 
N      -2.52171294      -1.40655206       4.86271885 
C      -1.73639769       1.10247689       2.56846906 
C      -1.10039046       1.85446252       1.64064986 
C      -1.60360229       3.08188033       1.08719761 
O      -2.66006584       3.56816146       1.40877578 
O      -0.89506818       3.73750820       0.17505005 
C       0.09047259       1.36392287       1.24200956 
H       3.20837730       2.12601515       0.11389576 
H       4.52649590       0.94028876      -0.02924660 
H       4.69131416       2.61402760      -0.67415333 
H       4.13862572       1.91982524      -4.89044785 
H       1.34742512      -1.43740613      -4.27534839 
H       0.30238980      -2.70881932      -2.44729874 
H       0.26742000      -1.44640222       3.14856535 
H      -2.69920701       1.50296043       2.88129402 
H      -1.34848175       4.54576527      -0.11843049 
H       0.61359882       1.95452507       0.50770468 
35
Properties=species:S:1:pos:R:3 pbc="F F F"
C       4.13993986       1.74732468      -0.51322124 
O       3.55503374       1.32791730      -1.66707701 
C       2.70685801       0.31314566      -1.72895059 
C       2.30418406      -0.03855381      -3.00212474 
C       2.80993738       0.64930201      -4.16617466 
O       2.43520406       0.32565738      -5.27282579 
O       3.69204366       1.64320178      -4.03401445 
C       1.41694764      -1.07864138      -3.15725781 
C       0.88521144      -1.81281637      -2.14953654 
C       1.27047863      -1.44386544      -0.89833792 
F       0.78159605      -2.17089537       0.07830638 
C       2.13014558      -0.38657521      -0.67308496 
N       2.59324500      -0.14900724       0.60909088 
N       1.94082172      -0.20443718       1.63283367 
C       0.64468384       0.19524016       1.81137183 
C      -0.06563516      -0.53409276       2.72453719 
C      -1.31715790      -0.09473710       3.02076199 
C      -2.06064422      -0.85051002       3.93849028 
N      -2.66713961      -1.46072555       4.68503336 
C      -1.76761862       1.05003999       2.42488251 
C      -1.05607004       1.80381180       1.53701289 
C      -1.56797810       3.02163588       0.93485654 
O      -2.66258797       3.47625790       1.17093353 
O      -0.79462977       3.68468452       0.06985304 
C       0.18711046       1.34937608       1.23173999 
H       3.37908865       2.05543141       0.22414632 
H       4.70335002       0.91058119      -0.07666794 
H       4.78116126       2.59789714      -0.67843285 
H       3.93072172       1.99351499      -4.91463167 
H       1.13193263      -1.33234409      -4.17198931 
H       0.20831358      -2.63755730      -2.28701665 
H       0.30143990      -1.43734587       3.18284128 
H      -2.76147418       1.41854085       2.65763840 
H      -1.24763539       4.47636319      -0.26548202 
H       0.76194847       1.94377703       0.53777532 
35
Properties=species:S:1:pos:R:3 pbc="F F F"
C       4.25116525       1.71320176      -0.47317781 
O       3.57751548       1.34327912      -1.62216676 
C       2.70305410       0.33495009      -1.66537287 
C       2.20062070       0.02426913      -2.93420623 
C       2.62517652       0.72587467      -4.14639282 
O       2.16526076       0.44210908      -5.23935614 
O       3.54522114       1.70477592      -4.04964173 
C       1.27571448      -1.00575865      -3.06641581 
C       0.81469827      -1.75059418      -2.01185179 
C       1.29363689      -1.41903667      -0.76540258 
F       0.87690810      -2.16000147       0.24872887 
C       2.19441191      -0.37248226      -0.55927319 
N       2.76462297      -0.19905939       0.72296873 
N       2.10286893      -0.15557265       1.76869949 
C       0.75284176       0.18952605       1.84702443 
C      -0.03485311      -0.53923280       2.72223392 
C      -1.33567733      -0.13724412       2.92143460 
C      -2.15312617      -0.90065346       3.79810216 
N      -2.81172220      -1.51445015       4.50565617 
C      -1.80064786       0.99764703       2.27957770 
C      -1.01022487       1.75244614       1.43396071 
C      -1.53310661       2.96118091       0.78076329 
O      -2.66151980       3.38342765       0.93312373 
O      -0.69519083       3.63135156      -0.03629668 
C       0.28368970       1.33514130       1.21992762 
H       3.55130945       1.98493732       0.32703975 
H       4.87560240       0.88416921      -0.12218058 
H       4.87089922       2.57999134      -0.68154405 
H       3.72186580       2.06638679      -4.93618496 
H       0.91812509      -1.22658118      -4.06492697 
H       0.11468095      -2.56501385      -2.12554042 
H       0.33502036      -1.42754625       3.21613398 
H      -2.81909331       1.33329254       2.43449980 
H      -1.14574271       4.40535258      -0.41253361 
H       0.90882096       1.93151315       0.56786932 
35
Properties=species:S:1:pos:R:3:forces:R:3 energy=-1610.0121951042806 pbc="F F F"
C       4.36573466       1.67811414      -0.43196503       0.00174001      -0.00056610      -0.00054840 
O       3.60111520       1.35775120      -1.57787067      -0.00057488       0.00088311      -0.00121115 
C       2.69842428       0.35731909      -1.60105287      -0.00258594       0.00085485      -0.00212253 
C       2.09701136       0.08699874      -2.86648368       0.00272803       0.00126042       0.00146269 
C       2.43865890       0.80334450      -4.12635873       0.00005762      -0.00139682       0.00269560 
O       1.89611608       0.55842487      -5.20572879       0.00187811      -0.00003953      -0.00055570 
O       3.39622074       1.76740671      -4.06712812      -0.00142305      -0.00190751       0.00123190 
C       1.13259599      -0.93215571      -2.97550708       0.00202930       0.00077109      -0.00239980 
C       0.74430607      -1.68821665      -1.87396221       0.00116605      -0.00188645      -0.00074663 
C       1.31603303      -1.39368214      -0.63118310      -0.00114337      -0.00080539       0.00021693 
F       0.97151938      -2.14794970       0.41985495       0.00029757       0.00078204      -0.00086307 
C       2.25916663      -0.35925836      -0.44726199      -0.00034541      -0.00037570       0.00104738 
N       2.93508419      -0.24598937       0.83936956       0.00423082      -0.00040459      -0.00278471 
N       2.26664200      -0.11000623       1.90194743      -0.00426592      -0.00066224       0.00128791 
C       0.85984742       0.18490082       1.88401246       0.00021911       0.00246613      -0.00166716 
C      -0.00350126      -0.54539478       2.71861605      -0.00235949      -0.00134433       0.00077501 
C      -1.35439289      -0.17935486       2.82315713       0.00160395       0.00219016      -0.00209395 
C      -2.24632605      -0.95122371       3.65763789       0.00124196       0.00001841       0.00177052 
N      -2.95572685      -1.56803998       4.32546756      -0.00201300      -0.00140709       0.00005533 
C      -1.83472984       0.94465568       2.13258913      -0.00120492      -0.00139434      -0.00035186 
C      -0.96437584       1.70120338       1.33164606       0.00052461      -0.00093211       0.00185181 
C      -1.49810437       2.90004644       0.62497258       0.00013290      -0.00032027       0.00114612 
O      -2.65903008       3.29060548       0.69637393      -0.00055083       0.00131549      -0.00210394 
O      -0.59633064       3.57776091      -0.14393869      -0.00016115       0.00192165      -0.00029634 
C       0.38173584       1.32060804       1.20636322      -0.00237113      -0.00116962       0.00056821 
H       3.72122037       1.91635216       0.42596118       0.00011488       0.00086684       0.00298420 
H       5.04601008       0.85835693      -0.16366938       0.00218812       0.00077569      -0.00127766 
H       4.96142776       2.56104072      -0.68376673      -0.00092741      -0.00037652      -0.00150737 
H       3.51284947       2.13866012      -4.95600247       0.00050220       0.00213931      -0.00170245 
H       0.70604454      -1.12077612      -3.95649491      -0.00066853      -0.00137997       0.00072675 
H       0.02133372      -2.49161555      -1.96341781      -0.00079409       0.00120569      -0.00023302 
H       0.36880320      -1.41759736       3.24840015      -0.00137582       0.00160065       0.00010767 
H      -2.87473315       1.24827742       2.21320799       0.00065430      -0.00202467       0.00010130 
H      -1.04297766       4.33311991      -0.55947622       0.00263574      -0.00179727       0.00301866 
H       1.05515414       1.91790951       0.59697050      -0.00118036       0.00113899       0.00141776 
